/*---------------------------------------------------------------------------*\
| =========                 |                                                 |
| \\      /  F ield         | OpenFOAM: The Open Source CFD Toolbox           |
|  \\    /   O peration     | Version:  2306                                  |
|   \\  /    A nd           | Website:  www.openfoam.com                      |
|    \\/     M anipulation  |                                                 |
\*---------------------------------------------------------------------------*/
Build  : _fbf00d6bf2-20230626 OPENFOAM=2306 version=v2306
Arch   : "LSB;label=32;scalar=64"
Exec   : myexpicoHeatFoam
Date   : Jan 17 2024
Time   : 21:53:44
Host   : DESKTOP-R5S5U8P
PID    : 7149
I/O    : uncollated
Case   : /mnt/g/openfoamT/testcode/c_youtube/c-youtube/testTutorial/cavity
nProcs : 1
trapFpe: Floating point exception trapping enabled (FOAM_SIGFPE).
fileModificationChecking : Monitoring run-time modified files using timeStampMaster (fileModificationSkew 5, maxFileModificationPolls 20)
allowSystemOperations : Allowing user-supplied system call operations

// * * * * * * * * * * * * * * * * * * * * * * * * * * * * * * * * * * * * * //
Create time

Create mesh for time = 0


PISO: Operating solver in PISO mode

Reading transportProperties

Reading field p

Reading field U

Reading field T

Reading/calculating face flux field phi


Starting time loop

Time = 0.005

Courant Number mean: 0 max: 0
smoothSolver:  Solving for Ux, Initial residual = 1, Final residual = 8.90511e-06, No Iterations 19
smoothSolver:  Solving for Uy, Initial residual = 0, Final residual = 0, No Iterations 0
DICPCG:  Solving for p, Initial residual = 1, Final residual = 0.0492854, No Iterations 12
time step continuity errors : sum local = 0.000466513, global = -1.79995e-19, cumulative = -1.79995e-19
DICPCG:  Solving for p, Initial residual = 0.590864, Final residual = 2.65225e-07, No Iterations 35
time step continuity errors : sum local = 2.74685e-09, global = -2.6445e-19, cumulative = -4.44444e-19
true true true 
760
(
-9.96997e-06
-1.003e-05
-9.87897e-06
-1.0091e-05
-9.8224e-06
-1.00566e-05
-9.77041e-06
-1.0052e-05
-9.72619e-06
-1.00442e-05
-9.68951e-06
-1.00367e-05
-9.66065e-06
-1.00289e-05
-9.64018e-06
-1.00205e-05
-9.62862e-06
-1.00116e-05
-9.6263e-06
-1.00023e-05
-9.6334e-06
-9.9929e-06
-9.64993e-06
-9.98347e-06
-9.67566e-06
-9.97428e-06
-9.70999e-06
-9.96566e-06
-9.75206e-06
-9.95794e-06
-9.80072e-06
-9.95133e-06
-9.85473e-06
-9.946e-06
-9.91266e-06
-9.94207e-06
-9.96984e-06
-9.94281e-06
-9.96984e-06
-9.97511e-06
-1.00549e-05
-9.87989e-06
-1.01862e-05
-9.77033e-06
-1.01661e-05
-9.67621e-06
-1.01461e-05
-9.59358e-06
-1.01269e-05
-9.52393e-06
-1.01063e-05
-9.46854e-06
-1.00842e-05
-9.4283e-06
-1.00607e-05
-9.40381e-06
-1.00361e-05
-9.39534e-06
-1.00108e-05
-9.40292e-06
-9.98531e-06
-9.42637e-06
-9.96002e-06
-9.46518e-06
-9.93547e-06
-9.51849e-06
-9.91236e-06
-9.58504e-06
-9.89138e-06
-9.66322e-06
-9.87316e-06
-9.75098e-06
-9.85824e-06
-9.84587e-06
-9.84719e-06
-9.94117e-06
-9.84751e-06
-9.91101e-06
-9.93465e-06
-1.01203e-05
-9.84589e-06
-1.0275e-05
-9.74325e-06
-1.02688e-05
-9.64683e-06
-1.02425e-05
-9.56046e-06
-1.02132e-05
-9.48677e-06
-1.018e-05
-9.42765e-06
-1.01434e-05
-9.38443e-06
-1.01039e-05
-9.35795e-06
-1.00625e-05
-9.3486e-06
-1.00201e-05
-9.35642e-06
-9.97749e-06
-9.38122e-06
-9.93522e-06
-9.42252e-06
-9.89416e-06
-9.4795e-06
-9.85538e-06
-9.5509e-06
-9.81999e-06
-9.63502e-06
-9.78903e-06
-9.72973e-06
-9.76353e-06
-9.8324e-06
-9.74451e-06
-9.93596e-06
-9.74396e-06
-9.84697e-06
-9.9301e-06
-1.01902e-05
-9.82555e-06
-1.03795e-05
-9.71735e-06
-1.0377e-05
-9.61628e-06
-1.03436e-05
-9.52616e-06
-1.03033e-05
-9.44949e-06
-1.02567e-05
-9.38806e-06
-1.02048e-05
-9.34319e-06
-1.01488e-05
-9.31578e-06
-1.00899e-05
-9.30631e-06
-1.00296e-05
-9.3148e-06
-9.96901e-06
-9.34105e-06
-9.90897e-06
-9.38467e-06
-9.85054e-06
-9.44492e-06
-9.79513e-06
-9.52062e-06
-9.74429e-06
-9.6101e-06
-9.69955e-06
-9.71115e-06
-9.66248e-06
-9.82104e-06
-9.63462e-06
-9.93201e-06
-9.633e-06
-9.77897e-06
-9.92167e-06
-1.02685e-05
-9.80441e-06
-1.04968e-05
-9.68635e-06
-1.0495e-05
-9.57683e-06
-1.04531e-05
-9.47976e-06
-1.04004e-05
-9.39772e-06
-1.03387e-05
-9.33238e-06
-1.02701e-05
-9.28482e-06
-1.01964e-05
-9.2559e-06
-1.01189e-05
-9.24608e-06
-1.00394e-05
-9.25536e-06
-9.95973e-06
-9.28355e-06
-9.88077e-06
-9.33033e-06
-9.80376e-06
-9.39509e-06
-9.73037e-06
-9.47678e-06
-9.66259e-06
-9.5738e-06
-9.60254e-06
-9.68388e-06
-9.55239e-06
-9.80412e-06
-9.51438e-06
-9.92581e-06
-9.5113e-06
-9.70479e-06
-9.91208e-06
-1.03564e-05
-9.77895e-06
-1.06299e-05
-9.64713e-06
-1.06268e-05
-9.52602e-06
-1.05742e-05
-9.41946e-06
-1.0507e-05
-9.33009e-06
-1.04281e-05
-9.25947e-06
-1.03408e-05
-9.20839e-06
-1.02475e-05
-9.17743e-06
-1.01498e-05
-9.167e-06
-1.00499e-05
-9.17712e-06
-9.9496e-06
-9.20762e-06
-9.85028e-06
-9.25826e-06
-9.75312e-06
-9.32865e-06
-9.65998e-06
-9.41797e-06
-9.57328e-06
-9.52474e-06
-9.49576e-06
-9.64672e-06
-9.43041e-06
-9.78071e-06
-9.38039e-06
-9.91686e-06
-9.37515e-06
-9.62165e-06
-9.90009e-06
-1.04563e-05
-9.74703e-06
-1.0783e-05
-9.59732e-06
-1.07766e-05
-9.46137e-06
-1.07102e-05
-9.34297e-06
-1.06254e-05
-9.24464e-06
-1.05264e-05
-9.1677e-06
-1.04177e-05
-9.11253e-06
-1.03026e-05
-9.07925e-06
-1.01831e-05
-9.06805e-06
-1.00611e-05
-9.07898e-06
-9.93867e-06
-9.11195e-06
-9.8173e-06
-9.16694e-06
-9.69813e-06
-9.24385e-06
-9.58307e-06
-9.34226e-06
-9.47487e-06
-9.46102e-06
-9.377e-06
-9.59795e-06
-9.29348e-06
-9.7496e-06
-9.22874e-06
-9.90464e-06
-9.22011e-06
-9.52629e-06
-9.88455e-06
-1.05718e-05
-9.70654e-06
-1.0961e-05
-9.5343e-06
-1.09488e-05
-9.38009e-06
-1.08644e-05
-9.24766e-06
-1.07578e-05
-9.1391e-06
-1.0635e-05
-9.0552e-06
-1.05016e-05
-8.99577e-06
-1.0362e-05
-8.96021e-06
-1.02187e-05
-8.94826e-06
-1.0073e-05
-8.95993e-06
-9.927e-06
-8.99533e-06
-9.7819e-06
-9.05477e-06
-9.63869e-06
-9.1387e-06
-9.49914e-06
-9.24734e-06
-9.36623e-06
-9.38018e-06
-9.24417e-06
-9.53537e-06
-9.13829e-06
-9.70923e-06
-9.05488e-06
-9.88857e-06
-9.04077e-06
-9.41486e-06
-9.86432e-06
-1.07075e-05
-9.6549e-06
-1.11704e-05
-9.45479e-06
-1.11489e-05
-9.2788e-06
-1.10404e-05
-9.13056e-06
-1.0906e-05
-9.01117e-06
-1.07544e-05
-8.9203e-06
-1.05925e-05
-8.85689e-06
-1.04255e-05
-8.81945e-06
-1.02561e-05
-8.80697e-06
-1.00855e-05
-8.81928e-06
-9.91469e-06
-8.85677e-06
-9.74441e-06
-8.92028e-06
-9.57518e-06
-9.01111e-06
-9.40832e-06
-9.13055e-06
-9.24678e-06
-9.27922e-06
-9.09549e-06
-9.45609e-06
-8.96142e-06
-9.65747e-06
-8.8535e-06
-9.86783e-06
-8.83042e-06
-9.28269e-06
-9.83789e-06
-1.08696e-05
-9.58874e-06
-1.14195e-05
-9.3547e-06
-1.1383e-05
-9.1536e-06
-1.12415e-05
-8.98855e-06
-1.10711e-05
-8.85885e-06
-1.08841e-05
-8.76214e-06
-1.06892e-05
-8.6958e-06
-1.04918e-05
-8.65727e-06
-1.02946e-05
-8.64458e-06
-1.00982e-05
-8.65727e-06
-9.902e-06
-8.69601e-06
-9.70567e-06
-8.76246e-06
-9.50874e-06
-8.8591e-06
-9.31167e-06
-8.98892e-06
-9.11696e-06
-9.15442e-06
-8.93e-06
-9.3562e-06
-8.75964e-06
-9.59119e-06
-8.6185e-06
-9.84102e-06
-8.58059e-06
-9.12371e-06
-9.80287e-06
-1.10667e-05
-9.50338e-06
-1.1719e-05
-9.22889e-06
-1.16574e-05
-9.00029e-06
-1.14701e-05
-8.81904e-06
-1.12523e-05
-8.68132e-06
-1.10218e-05
-8.58166e-06
-1.07888e-05
-8.51482e-06
-1.05586e-05
-8.47667e-06
-1.03328e-05
-8.46426e-06
-1.01106e-05
-8.47666e-06
-9.8896e-06
-8.51497e-06
-9.66736e-06
-8.5819e-06
-9.44181e-06
-8.68166e-06
-9.21191e-06
-8.81965e-06
-8.97898e-06
-9.00135e-06
-8.7483e-06
-9.23041e-06
-8.53058e-06
-9.50564e-06
-8.34327e-06
-9.80563e-06
-8.2806e-06
-8.92934e-06
-9.75551e-06
-1.13112e-05
-9.39229e-06
-1.20823e-05
-9.07117e-06
-1.19786e-05
-8.81514e-06
-1.17261e-05
-8.62149e-06
-1.1446e-05
-8.48101e-06
-1.11623e-05
-8.38374e-06
-1.08861e-05
-8.3208e-06
-1.06216e-05
-8.28578e-06
-1.03678e-05
-8.27454e-06
-1.01218e-05
-8.28568e-06
-9.87846e-06
-8.3207e-06
-9.63233e-06
-8.3837e-06
-9.37882e-06
-8.48119e-06
-9.11441e-06
-8.62196e-06
-8.83821e-06
-8.81603e-06
-8.55422e-06
-9.07235e-06
-8.27426e-06
-9.39409e-06
-8.02153e-06
-9.75759e-06
-7.9171e-06
-8.68693e-06
-9.69002e-06
-1.16212e-05
-9.24708e-06
-1.25252e-05
-8.87564e-06
-1.235e-05
-8.59758e-06
-1.20042e-05
-8.40115e-06
-1.16424e-05
-8.26824e-06
-1.12952e-05
-8.18225e-06
-1.09721e-05
-8.13001e-06
-1.06738e-05
-8.10232e-06
-1.03955e-05
-8.09376e-06
-1.01304e-05
-8.10244e-06
-9.86978e-06
-8.13016e-06
-9.60462e-06
-8.1824e-06
-9.32657e-06
-8.26846e-06
-9.02835e-06
-8.40153e-06
-8.70514e-06
-8.59825e-06
-8.3575e-06
-8.87634e-06
-7.99617e-06
-9.24814e-06
-7.64973e-06
-9.69103e-06
-7.47422e-06
-8.37796e-06
-9.59779e-06
-1.20234e-05
-9.05919e-06
-1.30638e-05
-8.64196e-06
-1.27672e-05
-8.35823e-06
-1.22879e-05
-8.1782e-06
-1.18225e-05
-8.0707e-06
-1.14027e-05
-8.00998e-06
-1.10328e-05
-7.97816e-06
-1.07056e-05
-7.96329e-06
-1.04104e-05
-7.95909e-06
-1.01346e-05
-7.96347e-06
-9.86539e-06
-7.97841e-06
-9.58968e-06
-8.01039e-06
-9.29459e-06
-8.07119e-06
-8.96755e-06
-8.17892e-06
-8.59741e-06
-8.35889e-06
-8.17753e-06
-8.64247e-06
-7.71259e-06
-9.05961e-06
-7.23259e-06
-9.59794e-06
-6.93588e-06
-7.9759e-06
-9.46706e-06
-1.25563e-05
-8.82615e-06
-1.37047e-05
-8.38871e-06
-1.32047e-05
-8.13644e-06
-1.25402e-05
-8.00723e-06
-1.19517e-05
-7.95197e-06
-1.1458e-05
-7.93575e-06
-1.1049e-05
-7.93688e-06
-1.07045e-05
-7.94195e-06
-1.04053e-05
-7.94426e-06
-1.01323e-05
-7.94191e-06
-9.86774e-06
-7.93698e-06
-9.59462e-06
-7.93613e-06
-9.29544e-06
-7.95234e-06
-8.95134e-06
-8.00759e-06
-8.54216e-06
-8.13648e-06
-8.04863e-06
-8.38917e-06
-7.45991e-06
-8.8264e-06
-6.79536e-06
-9.4674e-06
-6.29488e-06
-7.4433e-06
-9.28596e-06
-1.32704e-05
-8.57069e-06
-1.442e-05
-8.18475e-06
-1.35906e-05
-8.03457e-06
-1.26904e-05
-8.01235e-06
-1.19739e-05
-8.04809e-06
-1.14222e-05
-8.10112e-06
-1.0996e-05
-8.14943e-06
-1.06562e-05
-8.18178e-06
-1.03729e-05
-8.19297e-06
-1.01211e-05
-8.18158e-06
-9.87913e-06
-8.14916e-06
-9.62703e-06
-8.10092e-06
-9.34368e-06
-8.04808e-06
-9.00419e-06
-8.01252e-06
-8.57772e-06
-8.03475e-06
-8.02641e-06
-8.18508e-06
-7.30958e-06
-8.57103e-06
-6.40941e-06
-9.28693e-06
-5.57899e-06
-6.73023e-06
-9.06007e-06
-1.42103e-05
-8.39507e-06
-1.5085e-05
-8.22541e-06
-1.37603e-05
-8.30274e-06
-1.2613e-05
-8.46726e-06
-1.18094e-05
-8.63987e-06
-1.12496e-05
-8.78762e-06
-1.08482e-05
-8.89663e-06
-1.05472e-05
-8.96256e-06
-1.0307e-05
-8.98449e-06
-1.00992e-05
-8.96238e-06
-9.90124e-06
-8.89643e-06
-9.69298e-06
-8.78767e-06
-9.45244e-06
-8.64029e-06
-9.15157e-06
-8.46735e-06
-8.75066e-06
-8.30291e-06
-8.19086e-06
-8.22566e-06
-7.38682e-06
-8.39594e-06
-6.23913e-06
-9.05976e-06
-4.91517e-06
-5.78998e-06
-8.89685e-06
-1.53135e-05
-8.65179e-06
-1.533e-05
-9.01754e-06
-1.33945e-05
-9.50473e-06
-1.21258e-05
-9.94617e-06
-1.13679e-05
-1.02967e-05
-1.0899e-05
-1.05546e-05
-1.05904e-05
-1.0729e-05
-1.03728e-05
-1.08295e-05
-1.02065e-05
-1.08623e-05
-1.00664e-05
-1.08294e-05
-9.9341e-06
-1.07288e-05
-9.79355e-06
-1.05545e-05
-9.62675e-06
-1.0297e-05
-9.40908e-06
-9.94674e-06
-9.10094e-06
-9.50532e-06
-8.63228e-06
-9.01736e-06
-7.87478e-06
-8.65171e-06
-6.60478e-06
-8.89713e-06
-4.66976e-06
-4.68711e-06
-9.38421e-06
-1.59292e-05
-1.06286e-05
-1.40856e-05
-1.20144e-05
-1.20087e-05
-1.30571e-05
-1.10831e-05
-1.37927e-05
-1.06324e-05
-1.43009e-05
-1.03908e-05
-1.4644e-05
-1.02473e-05
-1.48642e-05
-1.01527e-05
-1.49872e-05
-1.00835e-05
-1.50267e-05
-1.00268e-05
-1.49871e-05
-9.97375e-06
-1.48641e-05
-9.91655e-06
-1.46441e-05
-9.84671e-06
-1.43012e-05
-9.75198e-06
-1.37929e-05
-9.60927e-06
-1.30568e-05
-9.36838e-06
-1.20151e-05
-8.91646e-06
-1.06286e-05
-7.99126e-06
-9.38409e-06
-5.91426e-06
-4.0712e-06
-1.59292e-05
-2.00148e-05
-2.20236e-05
-2.31067e-05
-2.37391e-05
-2.41299e-05
-2.43772e-05
-2.45299e-05
-2.46134e-05
-2.46402e-05
-2.46139e-05
-2.45305e-05
-2.43772e-05
-2.41292e-05
-2.37384e-05
-2.31068e-05
-2.20233e-05
-2.00145e-05
-1.59288e-05
)

400
(
7e-05
8e-05
8e-05
8e-05
8e-05
8e-05
8e-05
8e-05
8e-05
8e-05
8e-05
8e-05
8e-05
8e-05
8e-05
8e-05
8e-05
8e-05
8e-05
7e-05
8e-05
9e-05
9e-05
9e-05
9e-05
9e-05
9e-05
9e-05
9e-05
9e-05
9e-05
9e-05
9e-05
9e-05
9e-05
9e-05
9e-05
9e-05
9e-05
8e-05
8e-05
9e-05
9e-05
9e-05
9e-05
9e-05
9e-05
9e-05
9e-05
9e-05
9e-05
9e-05
9e-05
9e-05
9e-05
9e-05
9e-05
9e-05
9e-05
8e-05
8e-05
9e-05
9e-05
9e-05
9e-05
9e-05
9e-05
9e-05
9e-05
9e-05
9e-05
9e-05
9e-05
9e-05
9e-05
9e-05
9e-05
9e-05
9e-05
8e-05
8e-05
9e-05
9e-05
9e-05
9e-05
9e-05
9e-05
9e-05
9e-05
9e-05
9e-05
9e-05
9e-05
9e-05
9e-05
9e-05
9e-05
9e-05
9e-05
8e-05
8e-05
9e-05
9e-05
9e-05
9e-05
9e-05
9e-05
9e-05
9e-05
9e-05
9e-05
9e-05
9e-05
9e-05
9e-05
9e-05
9e-05
9e-05
9e-05
8e-05
8e-05
9e-05
9e-05
9e-05
9e-05
9e-05
9e-05
9e-05
9e-05
9e-05
9e-05
9e-05
9e-05
9e-05
9e-05
9e-05
9e-05
9e-05
9e-05
8e-05
8e-05
9e-05
9e-05
9e-05
9e-05
9e-05
9e-05
9e-05
9e-05
9e-05
9e-05
9e-05
9e-05
9e-05
9e-05
9e-05
9e-05
9e-05
9e-05
8e-05
8e-05
9e-05
9e-05
9e-05
9e-05
9e-05
9e-05
9e-05
9e-05
9e-05
9e-05
9e-05
9e-05
9e-05
9e-05
9e-05
9e-05
9e-05
9e-05
8e-05
8e-05
9e-05
9e-05
9e-05
9e-05
9e-05
9e-05
9e-05
9e-05
9e-05
9e-05
9e-05
9e-05
9e-05
9e-05
9e-05
9e-05
9e-05
9e-05
8e-05
8e-05
9e-05
9e-05
9e-05
9e-05
9e-05
9e-05
9e-05
9e-05
9e-05
9e-05
9e-05
9e-05
9e-05
9e-05
9e-05
9e-05
9e-05
9e-05
8e-05
8e-05
9e-05
9e-05
9e-05
9e-05
9e-05
9e-05
9e-05
9e-05
9e-05
9e-05
9e-05
9e-05
9e-05
9e-05
9e-05
9e-05
9e-05
9e-05
8e-05
8e-05
9e-05
9e-05
9e-05
9e-05
9e-05
9e-05
9e-05
9e-05
9e-05
9e-05
9e-05
9e-05
9e-05
9e-05
9e-05
9e-05
9e-05
9e-05
8e-05
8e-05
9e-05
9e-05
9e-05
9e-05
9e-05
9e-05
9e-05
9e-05
9e-05
9e-05
9e-05
9e-05
9e-05
9e-05
9e-05
9e-05
9e-05
9e-05
8e-05
8e-05
9e-05
9e-05
9e-05
9e-05
9e-05
9e-05
9e-05
9e-05
9e-05
9e-05
9e-05
9e-05
9e-05
9e-05
9e-05
9e-05
9e-05
9e-05
8e-05
8e-05
9e-05
9e-05
9e-05
9e-05
9e-05
9e-05
9e-05
9e-05
9e-05
9e-05
9e-05
9e-05
9e-05
9e-05
9e-05
9e-05
9e-05
9e-05
8e-05
8e-05
9e-05
9e-05
9e-05
9e-05
9e-05
9e-05
9e-05
9e-05
9e-05
9e-05
9e-05
9e-05
9e-05
9e-05
9e-05
9e-05
9e-05
9e-05
8e-05
8e-05
9e-05
9e-05
9e-05
9e-05
9e-05
9e-05
9e-05
9e-05
9e-05
9e-05
9e-05
9e-05
9e-05
9e-05
9e-05
9e-05
9e-05
9e-05
8e-05
8e-05
9e-05
9e-05
9e-05
9e-05
9e-05
9e-05
9e-05
9e-05
9e-05
9e-05
9e-05
9e-05
9e-05
9e-05
9e-05
9e-05
9e-05
9e-05
8e-05
7e-05
8e-05
8e-05
8e-05
8e-05
8e-05
8e-05
8e-05
8e-05
8e-05
8e-05
8e-05
8e-05
8e-05
8e-05
8e-05
8e-05
8e-05
8e-05
7e-05
)

760
(
-1.003e-05
-9.96997e-06
-1.0121e-05
-9.909e-06
-1.01776e-05
-9.94343e-06
-1.02296e-05
-9.94801e-06
-1.02738e-05
-9.95578e-06
-1.03105e-05
-9.96332e-06
-1.03394e-05
-9.97114e-06
-1.03598e-05
-9.97953e-06
-1.03714e-05
-9.98844e-06
-1.03737e-05
-9.99768e-06
-1.03666e-05
-1.00071e-05
-1.03501e-05
-1.00165e-05
-1.03243e-05
-1.00257e-05
-1.029e-05
-1.00343e-05
-1.02479e-05
-1.00421e-05
-1.01993e-05
-1.00487e-05
-1.01453e-05
-1.0054e-05
-1.00873e-05
-1.00579e-05
-1.00302e-05
-1.00572e-05
-1.00302e-05
-1.00249e-05
-9.94507e-06
-1.01201e-05
-9.81379e-06
-1.02297e-05
-9.83387e-06
-1.03238e-05
-9.85389e-06
-1.04064e-05
-9.87314e-06
-1.04761e-05
-9.89367e-06
-1.05315e-05
-9.91575e-06
-1.05717e-05
-9.93929e-06
-1.05962e-05
-9.96395e-06
-1.06047e-05
-9.98921e-06
-1.05971e-05
-1.00147e-05
-1.05736e-05
-1.004e-05
-1.05348e-05
-1.00645e-05
-1.04815e-05
-1.00876e-05
-1.0415e-05
-1.01086e-05
-1.03368e-05
-1.01268e-05
-1.0249e-05
-1.01418e-05
-1.01541e-05
-1.01528e-05
-1.00588e-05
-1.01525e-05
-1.0089e-05
-1.00654e-05
-9.87972e-06
-1.01541e-05
-9.72503e-06
-1.02568e-05
-9.73123e-06
-1.03532e-05
-9.75748e-06
-1.04395e-05
-9.78677e-06
-1.05132e-05
-9.81997e-06
-1.05723e-05
-9.85664e-06
-1.06156e-05
-9.89607e-06
-1.06421e-05
-9.93747e-06
-1.06514e-05
-9.97987e-06
-1.06436e-05
-1.00225e-05
-1.06188e-05
-1.00648e-05
-1.05775e-05
-1.01058e-05
-1.05205e-05
-1.01446e-05
-1.04491e-05
-1.018e-05
-1.0365e-05
-1.0211e-05
-1.02703e-05
-1.02365e-05
-1.01676e-05
-1.02555e-05
-1.0064e-05
-1.0256e-05
-1.0153e-05
-1.00699e-05
-9.80983e-06
-1.01745e-05
-9.62047e-06
-1.02827e-05
-9.62303e-06
-1.03837e-05
-9.6564e-06
-1.04738e-05
-9.69665e-06
-1.05505e-05
-9.74331e-06
-1.06119e-05
-9.79521e-06
-1.06568e-05
-9.85119e-06
-1.06842e-05
-9.91007e-06
-1.06937e-05
-9.97039e-06
-1.06852e-05
-1.0031e-05
-1.06589e-05
-1.0091e-05
-1.06153e-05
-1.01495e-05
-1.05551e-05
-1.02049e-05
-1.04794e-05
-1.02557e-05
-1.03899e-05
-1.03004e-05
-1.02889e-05
-1.03375e-05
-1.0179e-05
-1.03654e-05
-1.0068e-05
-1.0367e-05
-1.0221e-05
-1.00783e-05
-9.73149e-06
-1.01956e-05
-9.50322e-06
-1.03136e-05
-9.50497e-06
-1.04232e-05
-9.54688e-06
-1.05202e-05
-9.59958e-06
-1.06023e-05
-9.66126e-06
-1.06676e-05
-9.72987e-06
-1.07152e-05
-9.80363e-06
-1.07441e-05
-9.88115e-06
-1.07539e-05
-9.96057e-06
-1.07446e-05
-1.00403e-05
-1.07164e-05
-1.01192e-05
-1.06697e-05
-1.01962e-05
-1.06049e-05
-1.02696e-05
-1.05232e-05
-1.03374e-05
-1.04262e-05
-1.03975e-05
-1.03161e-05
-1.04476e-05
-1.01959e-05
-1.04856e-05
-1.00742e-05
-1.04887e-05
-1.02952e-05
-1.00879e-05
-9.64357e-06
-1.0221e-05
-9.37009e-06
-1.03529e-05
-9.37315e-06
-1.0474e-05
-9.42577e-06
-1.05805e-05
-9.49302e-06
-1.06699e-05
-9.5719e-06
-1.07405e-05
-9.65924e-06
-1.07916e-05
-9.75255e-06
-1.08226e-05
-9.85019e-06
-1.0833e-05
-9.95014e-06
-1.08229e-05
-1.00504e-05
-1.07924e-05
-1.01497e-05
-1.07417e-05
-1.02469e-05
-1.06713e-05
-1.034e-05
-1.0582e-05
-1.04267e-05
-1.04753e-05
-1.05042e-05
-1.03533e-05
-1.05696e-05
-1.02193e-05
-1.06196e-05
-1.00831e-05
-1.06249e-05
-1.03784e-05
-1.00999e-05
-9.54365e-06
-1.0253e-05
-9.21704e-06
-1.04027e-05
-9.22344e-06
-1.05386e-05
-9.28982e-06
-1.0657e-05
-9.37462e-06
-1.07554e-05
-9.47357e-06
-1.08323e-05
-9.58231e-06
-1.08875e-05
-9.69738e-06
-1.09208e-05
-9.8169e-06
-1.0932e-05
-9.93894e-06
-1.0921e-05
-1.00613e-05
-1.0888e-05
-1.01827e-05
-1.08331e-05
-1.03019e-05
-1.07561e-05
-1.04169e-05
-1.06577e-05
-1.05251e-05
-1.0539e-05
-1.0623e-05
-1.0402e-05
-1.07065e-05
-1.02504e-05
-1.07713e-05
-1.00954e-05
-1.07799e-05
-1.04737e-05
-1.01155e-05
-9.4282e-06
-1.02935e-05
-9.03903e-06
-1.04657e-05
-9.05119e-06
-1.06199e-05
-9.13561e-06
-1.07523e-05
-9.2422e-06
-1.08609e-05
-9.365e-06
-1.09448e-05
-9.49841e-06
-1.10042e-05
-9.63795e-06
-1.10398e-05
-9.78134e-06
-1.10517e-05
-9.92699e-06
-1.10401e-05
-1.0073e-05
-1.10047e-05
-1.02181e-05
-1.09452e-05
-1.03613e-05
-1.08613e-05
-1.05009e-05
-1.07527e-05
-1.06338e-05
-1.06198e-05
-1.07558e-05
-1.04646e-05
-1.08617e-05
-1.02908e-05
-1.09451e-05
-1.01114e-05
-1.09592e-05
-1.05851e-05
-1.01357e-05
-9.29253e-06
-1.03451e-05
-8.8296e-06
-1.05452e-05
-8.85109e-06
-1.07212e-05
-8.95963e-06
-1.08694e-05
-9.09396e-06
-1.09888e-05
-9.24561e-06
-1.10797e-05
-9.40754e-06
-1.11431e-05
-9.57455e-06
-1.11806e-05
-9.7439e-06
-1.1193e-05
-9.91451e-06
-1.11807e-05
-1.00853e-05
-1.11432e-05
-1.02556e-05
-1.10797e-05
-1.04248e-05
-1.09889e-05
-1.05917e-05
-1.08694e-05
-1.07532e-05
-1.07208e-05
-1.09045e-05
-1.05439e-05
-1.10386e-05
-1.03425e-05
-1.11465e-05
-1.01322e-05
-1.11696e-05
-1.07173e-05
-1.01621e-05
-9.13042e-06
-1.04113e-05
-8.58045e-06
-1.06453e-05
-8.61705e-06
-1.08464e-05
-8.75853e-06
-1.10114e-05
-8.92891e-06
-1.11412e-05
-9.11591e-06
-1.12379e-05
-9.31083e-06
-1.13042e-05
-9.50821e-06
-1.13427e-05
-9.70536e-06
-1.13554e-05
-9.90182e-06
-1.13427e-05
-1.0098e-05
-1.1304e-05
-1.02943e-05
-1.12375e-05
-1.04913e-05
-1.11409e-05
-1.06883e-05
-1.10111e-05
-1.0883e-05
-1.08456e-05
-1.107e-05
-1.06438e-05
-1.12404e-05
-1.04088e-05
-1.13815e-05
-1.0159e-05
-1.14194e-05
-1.08763e-05
-1.01971e-05
-8.93329e-06
-1.04966e-05
-8.28096e-06
-1.07711e-05
-8.34256e-06
-1.09997e-05
-8.52993e-06
-1.1181e-05
-8.74765e-06
-1.13187e-05
-8.9782e-06
-1.14183e-05
-9.21116e-06
-1.14852e-05
-9.44137e-06
-1.15233e-05
-9.66721e-06
-1.15357e-05
-9.88941e-06
-1.15233e-05
-1.01104e-05
-1.1485e-05
-1.03326e-05
-1.14181e-05
-1.05582e-05
-1.13183e-05
-1.07881e-05
-1.11804e-05
-1.1021e-05
-1.09986e-05
-1.12517e-05
-1.07696e-05
-1.14694e-05
-1.04944e-05
-1.16567e-05
-1.01944e-05
-1.17194e-05
-1.10707e-05
-1.02445e-05
-8.6888e-06
-1.06077e-05
-7.91774e-06
-1.09288e-05
-8.02144e-06
-1.11849e-05
-8.27389e-06
-1.13785e-05
-8.554e-06
-1.1519e-05
-8.83772e-06
-1.16163e-05
-9.1139e-06
-1.16792e-05
-9.37843e-06
-1.17142e-05
-9.6322e-06
-1.17255e-05
-9.87816e-06
-1.17143e-05
-1.01215e-05
-1.16793e-05
-1.03677e-05
-1.16163e-05
-1.06212e-05
-1.15188e-05
-1.08856e-05
-1.1378e-05
-1.11618e-05
-1.1184e-05
-1.14458e-05
-1.09276e-05
-1.17257e-05
-1.06059e-05
-1.19785e-05
-1.02424e-05
-1.20829e-05
-1.13131e-05
-1.031e-05
-8.37882e-06
-1.07529e-05
-7.4748e-06
-1.11244e-05
-7.65e-06
-1.14024e-05
-7.99583e-06
-1.15988e-05
-8.35758e-06
-1.17318e-05
-8.7048e-06
-1.18178e-05
-9.02791e-06
-1.187e-05
-9.32619e-06
-1.18977e-05
-9.60451e-06
-1.19062e-05
-9.8696e-06
-1.18976e-05
-1.01302e-05
-1.18698e-05
-1.03954e-05
-1.18176e-05
-1.06734e-05
-1.17315e-05
-1.09716e-05
-1.15985e-05
-1.12949e-05
-1.14018e-05
-1.16425e-05
-1.11237e-05
-1.20038e-05
-1.07519e-05
-1.23503e-05
-1.0309e-05
-1.25258e-05
-1.1622e-05
-1.04022e-05
-7.97661e-06
-1.09408e-05
-6.9362e-06
-1.1358e-05
-7.23277e-06
-1.16418e-05
-7.7121e-06
-1.18218e-05
-8.17754e-06
-1.19293e-05
-8.59729e-06
-1.199e-05
-8.9672e-06
-1.20218e-05
-9.29437e-06
-1.20367e-05
-9.58964e-06
-1.20409e-05
-9.8654e-06
-1.20365e-05
-1.01346e-05
-1.20216e-05
-1.04103e-05
-1.19896e-05
-1.07054e-05
-1.19288e-05
-1.10324e-05
-1.18211e-05
-1.14026e-05
-1.16411e-05
-1.18225e-05
-1.13575e-05
-1.22874e-05
-1.09404e-05
-1.27674e-05
-1.04021e-05
-1.30641e-05
-1.20241e-05
-1.05329e-05
-7.44367e-06
-1.11738e-05
-6.29529e-06
-1.16113e-05
-6.79533e-06
-1.18636e-05
-7.45984e-06
-1.19928e-05
-8.04833e-06
-1.2048e-05
-8.54204e-06
-1.20643e-05
-8.95097e-06
-1.20631e-05
-9.2955e-06
-1.20581e-05
-9.59472e-06
-1.20557e-05
-9.86771e-06
-1.20581e-05
-1.01323e-05
-1.2063e-05
-1.04054e-05
-1.20639e-05
-1.07046e-05
-1.20477e-05
-1.10487e-05
-1.19924e-05
-1.14578e-05
-1.18635e-05
-1.19514e-05
-1.16108e-05
-1.25401e-05
-1.11736e-05
-1.32046e-05
-1.05326e-05
-1.37051e-05
-1.25567e-05
-1.0714e-05
-6.72962e-06
-1.14293e-05
-5.58003e-06
-1.18152e-05
-6.40939e-06
-1.19654e-05
-7.30965e-06
-1.19877e-05
-8.02612e-06
-1.19519e-05
-8.57778e-06
-1.18989e-05
-9.004e-06
-1.18506e-05
-9.34381e-06
-1.18182e-05
-9.62707e-06
-1.1807e-05
-9.8789e-06
-1.18184e-05
-1.01209e-05
-1.18508e-05
-1.0373e-05
-1.18991e-05
-1.06563e-05
-1.19519e-05
-1.09958e-05
-1.19875e-05
-1.14223e-05
-1.19653e-05
-1.19736e-05
-1.18149e-05
-1.26904e-05
-1.1429e-05
-1.35906e-05
-1.07131e-05
-1.4421e-05
-1.32698e-05
-1.09399e-05
-5.7897e-06
-1.16049e-05
-4.91503e-06
-1.17746e-05
-6.23972e-06
-1.16973e-05
-7.38698e-06
-1.15327e-05
-8.19063e-06
-1.13601e-05
-8.75039e-06
-1.12124e-05
-9.15175e-06
-1.11034e-05
-9.45282e-06
-1.10374e-05
-9.693e-06
-1.10155e-05
-9.90083e-06
-1.10376e-05
-1.00988e-05
-1.11036e-05
-1.0307e-05
-1.12123e-05
-1.05476e-05
-1.13597e-05
-1.08484e-05
-1.15326e-05
-1.12493e-05
-1.16971e-05
-1.18091e-05
-1.17743e-05
-1.26132e-05
-1.16041e-05
-1.37609e-05
-1.09402e-05
-1.50848e-05
-1.421e-05
-1.11032e-05
-4.68655e-06
-1.13482e-05
-4.66997e-06
-1.09825e-05
-6.60547e-06
-1.04953e-05
-7.87417e-06
-1.00538e-05
-8.63208e-06
-9.70326e-06
-9.10096e-06
-9.44542e-06
-9.40959e-06
-9.27104e-06
-9.6272e-06
-9.17053e-06
-9.7935e-06
-9.13773e-06
-9.93364e-06
-9.17059e-06
-1.00659e-05
-9.27116e-06
-1.02064e-05
-9.44547e-06
-1.03733e-05
-9.70298e-06
-1.05909e-05
-1.00533e-05
-1.08991e-05
-1.04947e-05
-1.13677e-05
-1.09826e-05
-1.21252e-05
-1.13483e-05
-1.33952e-05
-1.11029e-05
-1.53302e-05
-1.53129e-05
-1.06158e-05
-4.07076e-06
-9.37135e-06
-5.91441e-06
-7.98556e-06
-7.99126e-06
-6.94285e-06
-8.91687e-06
-6.20731e-06
-9.36762e-06
-5.69911e-06
-9.60917e-06
-5.35597e-06
-9.75273e-06
-5.13583e-06
-9.84734e-06
-5.01284e-06
-9.9165e-06
-4.97329e-06
-9.97318e-06
-5.01293e-06
-1.00263e-05
-5.13593e-06
-1.00835e-05
-5.35589e-06
-1.01533e-05
-5.6988e-06
-1.0248e-05
-6.20713e-06
-1.03907e-05
-6.94324e-06
-1.06316e-05
-7.98492e-06
-1.10835e-05
-9.37141e-06
-1.20087e-05
-1.06159e-05
-1.40857e-05
-1.59288e-05
-4.07076e-06
1.48367e-08
2.02358e-06
3.1067e-06
3.73908e-06
4.12992e-06
4.37719e-06
4.52985e-06
4.61335e-06
4.64017e-06
4.61392e-06
4.53047e-06
4.37718e-06
4.12916e-06
3.73844e-06
3.10682e-06
2.02328e-06
1.45421e-08
-4.0712e-06
)

[0 3 -1 1 0 0 0]

400
(
0.015
0.015
0.015
0.015
0.015
0.015
0.015
0.015
0.015
0.015
0.015
0.015
0.015
0.015
0.015
0.015
0.015
0.015
0.015
0.015
0.015
0.015
0.015
0.015
0.015
0.015
0.015
0.015
0.015
0.015
0.015
0.015
0.015
0.015
0.015
0.015
0.015
0.015
0.015
0.015
0.015
0.015
0.015
0.015
0.015
0.015
0.015
0.015
0.015
0.015
0.015
0.015
0.015
0.015
0.015
0.015
0.015
0.015
0.015
0.015
0.015
0.015
0.015
0.015
0.015
0.015
0.015
0.015
0.015
0.015
0.015
0.015
0.015
0.015
0.015
0.015
0.015
0.015
0.015
0.015
0.015
0.015
0.015
0.015
0.015
0.015
0.015
0.015
0.015
0.015
0.015
0.015
0.015
0.015
0.015
0.015
0.015
0.015
0.015
0.015
0.015
0.015
0.015
0.015
0.015
0.015
0.015
0.015
0.015
0.015
0.015
0.015
0.015
0.015
0.015
0.015
0.015
0.015
0.015
0.015
0.015
0.015
0.015
0.015
0.015
0.015
0.015
0.015
0.015
0.015
0.015
0.015
0.015
0.015
0.015
0.015
0.015
0.015
0.015
0.015
0.015
0.015
0.015
0.015
0.015
0.015
0.015
0.015
0.015
0.015
0.015
0.015
0.015
0.015
0.015
0.015
0.015
0.015
0.015
0.015
0.015
0.015
0.015
0.015
0.015
0.015
0.015
0.015
0.015
0.015
0.015
0.015
0.015
0.015
0.015
0.015
0.015
0.015
0.015
0.015
0.015
0.015
0.015
0.015
0.015
0.015
0.015
0.015
0.015
0.015
0.015
0.015
0.015
0.015
0.015
0.015
0.015
0.015
0.015
0.015
0.015
0.015
0.015
0.015
0.015
0.015
0.015
0.015
0.015
0.015
0.015
0.015
0.015
0.015
0.015
0.015
0.015
0.015
0.015
0.015
0.015
0.015
0.015
0.015
0.015
0.015
0.015
0.015
0.015
0.015
0.015
0.015
0.015
0.015
0.015
0.015
0.015
0.015
0.015
0.015
0.015
0.015
0.015
0.015
0.015
0.015
0.015
0.015
0.015
0.015
0.015
0.015
0.015
0.015
0.015
0.015
0.015
0.015
0.015
0.015
0.015
0.015
0.015
0.015
0.015
0.015
0.015
0.015
0.015
0.015
0.015
0.015
0.015
0.015
0.015
0.015
0.015
0.015
0.015
0.015
0.015
0.015
0.015
0.015
0.015
0.015
0.015
0.015
0.015
0.015
0.015
0.015
0.015
0.015
0.015
0.015
0.015
0.015
0.015
0.015
0.015
0.015
0.015
0.015
0.015
0.015
0.015
0.015
0.015
0.015
0.015
0.015
0.015
0.015
0.015
0.015
0.015
0.015
0.015
0.015
0.015
0.015
0.015
0.015
0.015
0.015
0.015
0.015
0.015
0.015
0.015
0.015
0.015
0.015
0.015
0.015
0.015
0.015
0.015
0.015
0.015
0.015
0.015
0.015
0.015
0.015
0.015
0.015
0.015
0.015
0.015
0.015
0.015
0.015
0.015
0.015
0.015
0.015
0.015
0.015
0.015
0.015
0.015
0.015
0.015
0.015
0.015
0.015
0.015
0.015
0.015
0.015
0.015
0.015
0.015
0.015
0.015
0.015
0.015
0.015
0.015
0.015
0.015
0.015
0.015
0.015
0.015
0.015
0.015
0.015
0.015
0.015
0.015
0.015
0.015
0.015
0.015
0.015
0.015
0.015
)


3
(

20
(
2e-05
2e-05
2e-05
2e-05
2e-05
2e-05
2e-05
2e-05
2e-05
2e-05
2e-05
2e-05
2e-05
2e-05
2e-05
2e-05
2e-05
2e-05
2e-05
2e-05
)


60
(
2e-05
2e-05
2e-05
2e-05
2e-05
2e-05
2e-05
2e-05
2e-05
2e-05
2e-05
2e-05
2e-05
2e-05
2e-05
2e-05
2e-05
2e-05
2e-05
2e-05
2e-05
2e-05
2e-05
2e-05
2e-05
2e-05
2e-05
2e-05
2e-05
2e-05
2e-05
2e-05
2e-05
2e-05
2e-05
2e-05
2e-05
2e-05
2e-05
2e-05
2e-05
2e-05
2e-05
2e-05
2e-05
2e-05
2e-05
2e-05
2e-05
2e-05
2e-05
2e-05
2e-05
2e-05
2e-05
2e-05
2e-05
2e-05
2e-05
2e-05
)

0()
)


3
(

20
(
0.007
0.007
0.007
0.007
0.007
0.007
0.007
0.007
0.007
0.007
0.007
0.007
0.007
0.007
0.007
0.007
0.007
0.007
0.007
0.007
)


60
(
0.006
0.006
0.006
0.006
0.006
0.006
0.006
0.006
0.006
0.006
0.006
0.006
0.006
0.006
0.006
0.006
0.006
0.006
0.006
0.006
0.006
0.006
0.006
0.006
0.006
0.006
0.006
0.006
0.006
0.006
0.006
0.006
0.006
0.006
0.006
0.006
0.006
0.006
0.006
0.006
0.006
0.006
0.006
0.006
0.006
0.006
0.006
0.006
0.006
0.006
0.006
0.006
0.006
0.006
0.006
0.006
0.006
0.006
0.006
0.006
)

0()
)


ExecutionTime = 0 s  ClockTime = 0 s

Time = 0.01

Courant Number mean: 0.0976825 max: 0.585607
smoothSolver:  Solving for Ux, Initial residual = 0.160686, Final residual = 6.83031e-06, No Iterations 19
smoothSolver:  Solving for Uy, Initial residual = 0.260828, Final residual = 9.65939e-06, No Iterations 18
DICPCG:  Solving for p, Initial residual = 0.428925, Final residual = 0.0103739, No Iterations 22
time step continuity errors : sum local = 0.000110788, global = 3.77194e-19, cumulative = -6.72498e-20
DICPCG:  Solving for p, Initial residual = 0.30209, Final residual = 5.26569e-07, No Iterations 33
time step continuity errors : sum local = 6.61987e-09, global = -2.74872e-19, cumulative = -3.42122e-19
true true true 
760
(
-1.00059e-05
-9.99411e-06
-1.00125e-05
-9.99343e-06
-1.00192e-05
-9.99328e-06
-1.00082e-05
-1.0011e-05
-9.98057e-06
-1.00276e-05
-9.94487e-06
-1.00357e-05
-9.9082e-06
-1.00367e-05
-9.87561e-06
-1.00326e-05
-9.85018e-06
-1.00254e-05
-9.83344e-06
-1.00167e-05
-9.82637e-06
-1.00071e-05
-9.82938e-06
-9.99699e-06
-9.84211e-06
-9.98726e-06
-9.86376e-06
-9.97835e-06
-9.89319e-06
-9.97057e-06
-9.92814e-06
-9.96505e-06
-9.96426e-06
-9.96388e-06
-9.9941e-06
-9.97016e-06
-1.00068e-05
-9.98734e-06
-1.00068e-05
-9.9653e-06
-1.00288e-05
-9.91107e-06
-1.00477e-05
-9.8559e-06
-1.00485e-05
-9.79179e-06
-1.00751e-05
-9.72006e-06
-1.00994e-05
-9.6468e-06
-1.01089e-05
-9.57938e-06
-1.01041e-05
-9.52394e-06
-1.0088e-05
-9.48497e-06
-1.00644e-05
-9.46537e-06
-1.00363e-05
-9.46647e-06
-1.0006e-05
-9.48873e-06
-9.97473e-06
-9.53177e-06
-9.94422e-06
-9.59394e-06
-9.91619e-06
-9.67197e-06
-9.89254e-06
-9.76079e-06
-9.87624e-06
-9.85239e-06
-9.87229e-06
-9.93399e-06
-9.88855e-06
-9.98632e-06
-9.93502e-06
-9.99307e-06
-9.92516e-06
-1.01037e-05
-9.80616e-06
-1.01667e-05
-9.68164e-06
-1.0173e-05
-9.56096e-06
-1.01958e-05
-9.44793e-06
-1.02124e-05
-9.34666e-06
-1.02102e-05
-9.26186e-06
-1.01889e-05
-9.19776e-06
-1.01521e-05
-9.15781e-06
-1.01043e-05
-9.14451e-06
-1.00497e-05
-9.1593e-06
-9.99118e-06
-9.20238e-06
-9.93165e-06
-9.2727e-06
-9.87391e-06
-9.36799e-06
-9.82089e-06
-9.4843e-06
-9.77623e-06
-9.61513e-06
-9.74541e-06
-9.75037e-06
-9.73704e-06
-9.87438e-06
-9.76455e-06
-9.96424e-06
-9.84515e-06
-9.95731e-06
-9.92317e-06
-1.01805e-05
-9.77571e-06
-1.03141e-05
-9.60634e-06
-1.03423e-05
-9.44125e-06
-1.03609e-05
-9.2916e-06
-1.0362e-05
-9.16321e-06
-1.03386e-05
-9.06002e-06
-1.02921e-05
-8.98509e-06
-1.0227e-05
-8.94099e-06
-1.01484e-05
-8.92951e-06
-1.00611e-05
-8.95141e-06
-9.96928e-06
-9.00665e-06
-9.87642e-06
-9.09416e-06
-9.78639e-06
-9.21129e-06
-9.70376e-06
-9.35332e-06
-9.6342e-06
-9.51287e-06
-9.58586e-06
-9.67887e-06
-9.57104e-06
-9.83369e-06
-9.60973e-06
-9.95094e-06
-9.7279e-06
-9.90825e-06
-9.93027e-06
-1.02502e-05
-9.7708e-06
-1.04736e-05
-9.57231e-06
-1.05408e-05
-9.37286e-06
-1.05603e-05
-9.19131e-06
-1.05436e-05
-9.03676e-06
-1.04932e-05
-8.91413e-06
-1.04147e-05
-8.82626e-06
-1.03149e-05
-8.77499e-06
-1.01997e-05
-8.76151e-06
-1.00746e-05
-8.78631e-06
-9.94448e-06
-8.84902e-06
-9.81371e-06
-8.94835e-06
-9.68706e-06
-9.08161e-06
-9.57049e-06
-9.24401e-06
-9.4718e-06
-9.42767e-06
-9.40219e-06
-9.62019e-06
-9.37852e-06
-9.80145e-06
-9.42847e-06
-9.94087e-06
-9.58848e-06
-9.84913e-06
-9.93279e-06
-1.03174e-05
-9.76241e-06
-1.0644e-05
-9.53894e-06
-1.07643e-05
-9.30878e-06
-1.07905e-05
-9.0974e-06
-1.0755e-05
-8.91736e-06
-1.06732e-05
-8.77489e-06
-1.05572e-05
-8.67301e-06
-1.04168e-05
-8.61316e-06
-1.02596e-05
-8.59601e-06
-1.00918e-05
-8.62173e-06
-9.91876e-06
-8.68995e-06
-9.7455e-06
-8.79948e-06
-9.57753e-06
-8.94784e-06
-9.42213e-06
-9.13031e-06
-9.28933e-06
-9.33866e-06
-9.19385e-06
-9.559e-06
-9.15817e-06
-9.76842e-06
-9.21906e-06
-9.93068e-06
-9.42621e-06
-9.77981e-06
-9.92863e-06
-1.03888e-05
-9.74055e-06
-1.08321e-05
-9.48855e-06
-1.10163e-05
-9.2262e-06
-1.10528e-05
-8.98435e-06
-1.09968e-05
-8.77849e-06
-1.0879e-05
-8.61595e-06
-1.07197e-05
-8.49975e-06
-1.0533e-05
-8.43085e-06
-1.03285e-05
-8.4094e-06
-1.01132e-05
-8.43531e-06
-9.89284e-06
-8.50837e-06
-9.67244e-06
-8.62786e-06
-9.45805e-06
-8.79192e-06
-9.25807e-06
-8.99639e-06
-9.08486e-06
-9.23294e-06
-8.9573e-06
-9.48609e-06
-8.90502e-06
-9.72926e-06
-8.97589e-06
-9.91883e-06
-9.23665e-06
-9.69864e-06
-9.91728e-06
-1.04715e-05
-9.70118e-06
-1.10482e-05
-9.41262e-06
-1.13049e-05
-9.11299e-06
-1.13525e-05
-8.83808e-06
-1.12717e-05
-8.60552e-06
-1.11116e-05
-8.42292e-06
-1.09023e-05
-8.29275e-06
-1.06632e-05
-8.21504e-06
-1.04062e-05
-8.18923e-06
-1.0139e-05
-8.21497e-06
-9.8671e-06
-8.29242e-06
-9.59499e-06
-8.42175e-06
-9.32871e-06
-8.60238e-06
-9.07744e-06
-8.83134e-06
-8.85589e-06
-9.10076e-06
-8.68789e-06
-9.3938e-06
-8.61198e-06
-9.67915e-06
-8.69053e-06
-9.90379e-06
-9.01202e-06
-9.60242e-06
-9.89825e-06
-1.05733e-05
-9.64133e-06
-1.13051e-05
-9.3051e-06
-1.16411e-05
-8.96099e-06
-1.16966e-05
-8.64962e-06
-1.15831e-05
-8.38977e-06
-1.13715e-05
-8.18807e-06
-1.1104e-05
-8.04533e-06
-1.08059e-05
-7.95991e-06
-1.04916e-05
-7.93013e-06
-1.01688e-05
-7.95532e-06
-9.84191e-06
-8.03616e-06
-9.51414e-06
-8.17428e-06
-9.1906e-06
-8.37118e-06
-8.88054e-06
-8.6262e-06
-8.60087e-06
-8.93296e-06
-8.38112e-06
-9.27397e-06
-8.27097e-06
-9.61235e-06
-8.35215e-06
-9.883e-06
-8.74136e-06
-9.48543e-06
-9.87012e-06
-1.07031e-05
-9.55663e-06
-1.16186e-05
-9.15929e-06
-1.20384e-05
-8.76284e-06
-1.2093e-05
-8.41251e-06
-1.19334e-05
-8.12662e-06
-1.16573e-05
-7.90898e-06
-1.13217e-05
-7.75706e-06
-1.09578e-05
-7.66647e-06
-1.05822e-05
-7.63374e-06
-1.02016e-05
-7.65765e-06
-9.818e-06
-7.73961e-06
-9.43218e-06
-7.88334e-06
-9.04688e-06
-8.0936e-06
-8.67028e-06
-8.37363e-06
-8.32084e-06
-8.72046e-06
-8.03429e-06
-9.11735e-06
-7.87408e-06
-9.52196e-06
-7.94755e-06
-9.85344e-06
-8.40988e-06
-9.33887e-06
-9.82964e-06
-1.08735e-05
-9.43995e-06
-1.20082e-05
-8.9666e-06
-1.25118e-05
-8.51149e-06
-1.25481e-05
-8.12329e-06
-1.23216e-05
-7.81699e-06
-1.19637e-05
-7.59076e-06
-1.15479e-05
-7.43638e-06
-1.11122e-05
-7.34529e-06
-1.06733e-05
-7.31138e-06
-1.02355e-05
-7.33261e-06
-9.79678e-06
-7.41128e-06
-9.3535e-06
-7.55395e-06
-8.90421e-06
-7.7701e-06
-8.45413e-06
-8.06917e-06
-8.02177e-06
-8.45459e-06
-7.64888e-06
-8.91334e-06
-7.41533e-06
-9.39914e-06
-7.46174e-06
-9.81139e-06
-7.99762e-06
-9.15027e-06
-9.77111e-06
-1.11024e-05
-9.28076e-06
-1.24986e-05
-8.71716e-06
-1.30754e-05
-8.20253e-06
-1.30628e-05
-7.7854e-06
-1.27387e-05
-7.47222e-06
-1.22768e-05
-7.25133e-06
-1.17688e-05
-7.10603e-06
-1.12575e-05
-7.02189e-06
-1.07574e-05
-6.98951e-06
-1.02678e-05
-7.00575e-06
-9.78054e-06
-7.07399e-06
-9.28527e-06
-7.20417e-06
-8.77403e-06
-7.41194e-06
-8.24636e-06
-7.71569e-06
-7.71802e-06
-8.12969e-06
-7.23488e-06
-8.65026e-06
-6.89475e-06
-9.23149e-06
-6.88052e-06
-9.75033e-06
-7.47878e-06
-8.90059e-06
-9.68538e-06
-1.1417e-05
-9.06521e-06
-1.31188e-05
-8.403e-06
-1.37376e-05
-7.84065e-06
-1.36251e-05
-7.41772e-06
-1.31617e-05
-7.12376e-06
-1.25708e-05
-6.93156e-06
-1.1961e-05
-6.81339e-06
-1.13757e-05
-6.74767e-06
-1.08231e-05
-6.72121e-06
-1.02943e-05
-6.72949e-06
-9.77226e-06
-6.77686e-06
-9.2379e-06
-6.8769e-06
-8.67399e-06
-7.05234e-06
-8.07092e-06
-7.33324e-06
-7.43712e-06
-7.75042e-06
-6.8177e-06
-8.31883e-06
-6.32634e-06
-9.00292e-06
-6.19644e-06
-9.65931e-06
-6.82238e-06
-8.55991e-06
-9.55806e-06
-1.1859e-05
-8.77817e-06
-1.38987e-05
-8.02692e-06
-1.44888e-05
-7.45413e-06
-1.41979e-05
-7.07249e-06
-1.35433e-05
-6.84253e-06
-1.28008e-05
-6.71534e-06
-1.20882e-05
-6.65018e-06
-1.14408e-05
-6.61849e-06
-1.08548e-05
-6.60397e-06
-1.03088e-05
-6.60095e-06
-9.77527e-06
-6.61418e-06
-9.22467e-06
-6.65979e-06
-8.62838e-06
-6.76697e-06
-7.96373e-06
-6.97885e-06
-7.22524e-06
-7.34872e-06
-6.44784e-06
-7.92327e-06
-5.75179e-06
-8.69719e-06
-5.42252e-06
-9.52217e-06
-5.9974e-06
-8.08208e-06
-9.36775e-06
-1.24912e-05
-8.41279e-06
-1.48536e-05
-7.6263e-06
-1.52753e-05
-7.12775e-06
-1.46965e-05
-6.87151e-06
-1.37995e-05
-6.77389e-06
-1.28984e-05
-6.76131e-06
-1.21008e-05
-6.78195e-06
-1.14202e-05
-6.80347e-06
-1.08333e-05
-6.80847e-06
-1.03038e-05
-6.79095e-06
-9.7928e-06
-6.75516e-06
-9.26047e-06
-6.71711e-06
-8.66643e-06
-6.70866e-06
-7.97218e-06
-6.78318e-06
-7.15072e-06
-7.0189e-06
-6.21211e-06
-7.50865e-06
-5.26205e-06
-8.31086e-06
-4.62031e-06
-9.31661e-06
-4.99165e-06
-7.39869e-06
-9.09247e-06
-1.33987e-05
-8.00635e-06
-1.59397e-05
-7.33268e-06
-1.5949e-05
-7.06966e-06
-1.49595e-05
-7.0693e-06
-1.37999e-05
-7.19521e-06
-1.27725e-05
-7.35515e-06
-1.19408e-05
-7.49537e-06
-1.128e-05
-7.58801e-06
-1.07406e-05
-7.6199e-06
-1.02719e-05
-7.58643e-06
-9.82626e-06
-7.4897e-06
-9.3572e-06
-7.34048e-06
-8.81565e-06
-7.16467e-06
-8.148e-06
-7.01492e-06
-7.30046e-06
-6.98611e-06
-6.24092e-06
-7.22357e-06
-5.02459e-06
-7.8944e-06
-3.94948e-06
-9.02447e-06
-3.86158e-06
-6.42316e-06
-8.7486e-06
-1.46501e-05
-7.74751e-06
-1.69408e-05
-7.50642e-06
-1.61901e-05
-7.73989e-06
-1.4726e-05
-8.163e-06
-1.33768e-05
-8.60508e-06
-1.23304e-05
-8.98265e-06
-1.15633e-05
-9.2623e-06
-1.10003e-05
-9.43418e-06
-1.05688e-05
-9.49664e-06
-1.02095e-05
-9.44914e-06
-9.87377e-06
-9.28995e-06
-9.51639e-06
-9.01776e-06
-9.08783e-06
-8.6387e-06
-8.52706e-06
-8.18239e-06
-7.75677e-06
-7.73047e-06
-6.69284e-06
-7.45739e-06
-5.29766e-06
-7.66634e-06
-3.74054e-06
-8.67912e-06
-2.84879e-06
-5.10228e-06
-8.52938e-06
-1.61208e-05
-8.26196e-06
-1.72082e-05
-9.02419e-06
-1.54279e-05
-1.0074e-05
-1.36762e-05
-1.10517e-05
-1.23991e-05
-1.18397e-05
-1.15424e-05
-1.24218e-05
-1.09811e-05
-1.28172e-05
-1.0605e-05
-1.30496e-05
-1.03364e-05
-1.31357e-05
-1.01233e-05
-1.30812e-05
-9.9283e-06
-1.28794e-05
-9.7182e-06
-1.25119e-05
-9.45532e-06
-1.19516e-05
-9.08738e-06
-1.11736e-05
-8.53477e-06
-1.01863e-05
-7.68015e-06
-9.10339e-06
-6.38055e-06
-8.28914e-06
-4.55479e-06
-8.51126e-06
-2.62667e-06
-3.61354e-06
-9.43705e-06
-1.66837e-05
-1.13863e-05
-1.5259e-05
-1.37911e-05
-1.30231e-05
-1.57396e-05
-1.17277e-05
-1.71401e-05
-1.09986e-05
-1.80986e-05
-1.05839e-05
-1.87339e-05
-1.03458e-05
-1.9136e-05
-1.02029e-05
-1.93631e-05
-1.01093e-05
-1.9447e-05
-1.00394e-05
-1.93983e-05
-9.97701e-06
-1.92077e-05
-9.90875e-06
-1.8844e-05
-9.81906e-06
-1.8248e-05
-9.68342e-06
-1.73262e-05
-9.45649e-06
-1.59519e-05
-9.05451e-06
-1.40087e-05
-8.32377e-06
-1.15802e-05
-6.98325e-06
-9.55525e-06
-4.65161e-06
-3.16879e-06
-1.66837e-05
-2.19427e-05
-2.49658e-05
-2.66934e-05
-2.76921e-05
-2.8276e-05
-2.86218e-05
-2.88247e-05
-2.8934e-05
-2.89733e-05
-2.89504e-05
-2.88591e-05
-2.86782e-05
-2.83616e-05
-2.78181e-05
-2.68726e-05
-2.51963e-05
-2.21796e-05
-1.68312e-05
)

400
(
7e-05
8e-05
8e-05
8e-05
8e-05
8e-05
8e-05
8e-05
8e-05
8e-05
8e-05
8e-05
8e-05
8e-05
8e-05
8e-05
8e-05
8e-05
8e-05
7e-05
8e-05
9e-05
9e-05
9e-05
9e-05
9e-05
9e-05
9e-05
9e-05
9e-05
9e-05
9e-05
9e-05
9e-05
9e-05
9e-05
9e-05
9e-05
9e-05
8e-05
8e-05
9e-05
9e-05
9e-05
9e-05
9e-05
9e-05
9e-05
9e-05
9e-05
9e-05
9e-05
9e-05
9e-05
9e-05
9e-05
9e-05
9e-05
9e-05
8e-05
8e-05
9e-05
9e-05
9e-05
9e-05
9e-05
9e-05
9e-05
9e-05
9e-05
9e-05
9e-05
9e-05
9e-05
9e-05
9e-05
9e-05
9e-05
9e-05
8e-05
8e-05
9e-05
9e-05
9e-05
9e-05
9e-05
9e-05
9e-05
9e-05
9e-05
9e-05
9e-05
9e-05
9e-05
9e-05
9e-05
9e-05
9e-05
9e-05
8e-05
8e-05
9e-05
9e-05
9e-05
9e-05
9e-05
9e-05
9e-05
9e-05
9e-05
9e-05
9e-05
9e-05
9e-05
9e-05
9e-05
9e-05
9e-05
9e-05
8e-05
8e-05
9e-05
9e-05
9e-05
9e-05
9e-05
9e-05
9e-05
9e-05
9e-05
9e-05
9e-05
9e-05
9e-05
9e-05
9e-05
9e-05
9e-05
9e-05
8e-05
8e-05
9e-05
9e-05
9e-05
9e-05
9e-05
9e-05
9e-05
9e-05
9e-05
9e-05
9e-05
9e-05
9e-05
9e-05
9e-05
9e-05
9e-05
9e-05
8e-05
8e-05
9e-05
9e-05
9e-05
9e-05
9e-05
9e-05
9e-05
9e-05
9e-05
9e-05
9e-05
9e-05
9e-05
9e-05
9e-05
9e-05
9e-05
9e-05
8e-05
8e-05
9e-05
9e-05
9e-05
9e-05
9e-05
9e-05
9e-05
9e-05
9e-05
9e-05
9e-05
9e-05
9e-05
9e-05
9e-05
9e-05
9e-05
9e-05
8e-05
8e-05
9e-05
9e-05
9e-05
9e-05
9e-05
9e-05
9e-05
9e-05
9e-05
9e-05
9e-05
9e-05
9e-05
9e-05
9e-05
9e-05
9e-05
9e-05
8e-05
8e-05
9e-05
9e-05
9e-05
9e-05
9e-05
9e-05
9e-05
9e-05
9e-05
9e-05
9e-05
9e-05
9e-05
9e-05
9e-05
9e-05
9e-05
9e-05
8e-05
8e-05
9e-05
9e-05
9e-05
9e-05
9e-05
9e-05
9e-05
9e-05
9e-05
9e-05
9e-05
9e-05
9e-05
9e-05
9e-05
9e-05
9e-05
9e-05
8e-05
8e-05
9e-05
9e-05
9e-05
9e-05
9e-05
9e-05
9e-05
9e-05
9e-05
9e-05
9e-05
9e-05
9e-05
9e-05
9e-05
9e-05
9e-05
9e-05
8e-05
8e-05
9e-05
9e-05
9e-05
9e-05
9e-05
9e-05
9e-05
9e-05
9e-05
9e-05
9e-05
9e-05
9e-05
9e-05
9e-05
9e-05
9e-05
9e-05
8e-05
8e-05
9e-05
9e-05
9e-05
9e-05
9e-05
9e-05
9e-05
9e-05
9e-05
9e-05
9e-05
9e-05
9e-05
9e-05
9e-05
9e-05
9e-05
9e-05
8e-05
8e-05
9e-05
9e-05
9e-05
9e-05
9e-05
9e-05
9e-05
9e-05
9e-05
9e-05
9e-05
9e-05
9e-05
9e-05
9e-05
9e-05
9e-05
9e-05
8e-05
8e-05
9e-05
9e-05
9e-05
9e-05
9e-05
9e-05
9e-05
9e-05
9e-05
9e-05
9e-05
9e-05
9e-05
9e-05
9e-05
9e-05
9e-05
9e-05
8e-05
8e-05
9e-05
9e-05
9e-05
9e-05
9e-05
9e-05
9e-05
9e-05
9e-05
9e-05
9e-05
9e-05
9e-05
9e-05
9e-05
9e-05
9e-05
9e-05
8e-05
7e-05
8e-05
8e-05
8e-05
8e-05
8e-05
8e-05
8e-05
8e-05
8e-05
8e-05
8e-05
8e-05
8e-05
8e-05
8e-05
8e-05
8e-05
8e-05
7e-05
)

760
(
-9.99411e-06
-1.00059e-05
-9.98754e-06
-1.00066e-05
-9.98082e-06
-1.00067e-05
-9.99181e-06
-9.98901e-06
-1.00194e-05
-9.97238e-06
-1.00551e-05
-9.96431e-06
-1.00918e-05
-9.96333e-06
-1.01244e-05
-9.96741e-06
-1.01498e-05
-9.97457e-06
-1.01666e-05
-9.98326e-06
-1.01736e-05
-9.99293e-06
-1.01706e-05
-1.0003e-05
-1.01579e-05
-1.00127e-05
-1.01362e-05
-1.00216e-05
-1.01068e-05
-1.00294e-05
-1.00719e-05
-1.00349e-05
-1.00357e-05
-1.00361e-05
-1.00059e-05
-1.00298e-05
-9.99325e-06
-1.00127e-05
-9.99325e-06
-1.00347e-05
-9.97119e-06
-1.00889e-05
-9.95234e-06
-1.01441e-05
-9.95154e-06
-1.02082e-05
-9.92491e-06
-1.02799e-05
-9.90065e-06
-1.03532e-05
-9.89105e-06
-1.04206e-05
-9.8959e-06
-1.04761e-05
-9.91198e-06
-1.0515e-05
-9.9356e-06
-1.05346e-05
-9.96366e-06
-1.05335e-05
-9.99403e-06
-1.05113e-05
-1.00253e-05
-1.04682e-05
-1.00558e-05
-1.04061e-05
-1.00838e-05
-1.0328e-05
-1.01075e-05
-1.02392e-05
-1.01238e-05
-1.01476e-05
-1.01277e-05
-1.0066e-05
-1.01114e-05
-1.00137e-05
-1.0065e-05
-1.00069e-05
-1.00748e-05
-9.89635e-06
-1.01938e-05
-9.83334e-06
-1.03184e-05
-9.82702e-06
-1.0439e-05
-9.80423e-06
-1.05521e-05
-9.78762e-06
-1.06533e-05
-9.78978e-06
-1.07381e-05
-9.81109e-06
-1.08022e-05
-9.84788e-06
-1.08422e-05
-9.89565e-06
-1.08555e-05
-9.95035e-06
-1.08407e-05
-1.00088e-05
-1.07976e-05
-1.00683e-05
-1.07273e-05
-1.01261e-05
-1.0632e-05
-1.01791e-05
-1.05157e-05
-1.02238e-05
-1.03849e-05
-1.02546e-05
-1.02496e-05
-1.0263e-05
-1.01256e-05
-1.02354e-05
-1.00358e-05
-1.01548e-05
-1.00427e-05
-1.00768e-05
-9.81952e-06
-1.02243e-05
-9.68588e-06
-1.03937e-05
-9.65766e-06
-1.05588e-05
-9.63913e-06
-1.07084e-05
-9.63798e-06
-1.08368e-05
-9.66139e-06
-1.094e-05
-9.7079e-06
-1.10149e-05
-9.77296e-06
-1.1059e-05
-9.85156e-06
-1.10705e-05
-9.93886e-06
-1.10486e-05
-1.00307e-05
-1.09934e-05
-1.01236e-05
-1.09058e-05
-1.02136e-05
-1.07887e-05
-1.02962e-05
-1.06467e-05
-1.03658e-05
-1.04871e-05
-1.04141e-05
-1.03211e-05
-1.0429e-05
-1.01663e-05
-1.03903e-05
-1.00491e-05
-1.02721e-05
-1.00917e-05
-1.00697e-05
-9.74979e-06
-1.02292e-05
-9.52641e-06
-1.04277e-05
-9.45917e-06
-1.06271e-05
-9.43968e-06
-1.08087e-05
-9.45643e-06
-1.09632e-05
-9.50685e-06
-1.10859e-05
-9.58527e-06
-1.11737e-05
-9.68509e-06
-1.1225e-05
-9.80028e-06
-1.12385e-05
-9.92538e-06
-1.12137e-05
-1.00555e-05
-1.1151e-05
-1.01863e-05
-1.10517e-05
-1.03129e-05
-1.09184e-05
-1.04295e-05
-1.0756e-05
-1.05282e-05
-1.05723e-05
-1.05978e-05
-1.03798e-05
-1.06215e-05
-1.01985e-05
-1.05715e-05
-1.00591e-05
-1.04115e-05
-1.01509e-05
-1.00672e-05
-9.68258e-06
-1.02376e-05
-9.35603e-06
-1.04611e-05
-9.2357e-06
-1.06912e-05
-9.20952e-06
-1.09026e-05
-9.24505e-06
-1.10826e-05
-9.32681e-06
-1.12251e-05
-9.4428e-06
-1.1327e-05
-9.5832e-06
-1.13868e-05
-9.74044e-06
-1.1404e-05
-9.90823e-06
-1.13783e-05
-1.00812e-05
-1.13101e-05
-1.02545e-05
-1.12005e-05
-1.04225e-05
-1.10522e-05
-1.05779e-05
-1.08697e-05
-1.07107e-05
-1.06613e-05
-1.08062e-05
-1.0441e-05
-1.08418e-05
-1.02316e-05
-1.07809e-05
-1.00693e-05
-1.05738e-05
-1.02202e-05
-1.00714e-05
-9.61121e-06
-1.02595e-05
-9.16795e-06
-1.05115e-05
-8.9837e-06
-1.07738e-05
-8.94717e-06
-1.10156e-05
-9.0032e-06
-1.12215e-05
-9.12095e-06
-1.13841e-05
-9.28026e-06
-1.15003e-05
-9.467e-06
-1.15692e-05
-9.67154e-06
-1.15906e-05
-9.88678e-06
-1.15647e-05
-1.01072e-05
-1.14916e-05
-1.03276e-05
-1.13721e-05
-1.0542e-05
-1.12081e-05
-1.07419e-05
-1.10036e-05
-1.09151e-05
-1.07671e-05
-1.10427e-05
-1.05139e-05
-1.1095e-05
-1.02707e-05
-1.10241e-05
-1.00812e-05
-1.07634e-05
-1.03014e-05
-1.00827e-05
-9.52849e-06
-1.02988e-05
-8.95185e-06
-1.05874e-05
-8.69514e-06
-1.0887e-05
-8.64754e-06
-1.11619e-05
-8.72828e-06
-1.13945e-05
-8.88839e-06
-1.15771e-05
-9.09766e-06
-1.17072e-05
-9.33683e-06
-1.1785e-05
-9.59383e-06
-1.18108e-05
-9.86096e-06
-1.1785e-05
-1.01329e-05
-1.17076e-05
-1.0405e-05
-1.15782e-05
-1.06713e-05
-1.13976e-05
-1.09226e-05
-1.11687e-05
-1.11441e-05
-1.08992e-05
-1.13121e-05
-1.06062e-05
-1.1388e-05
-1.03208e-05
-1.13095e-05
-1.00962e-05
-1.0988e-05
-1.03976e-05
-1.01018e-05
-9.42674e-06
-1.03587e-05
-8.69493e-06
-1.06949e-05
-8.35891e-06
-1.1039e-05
-8.30343e-06
-1.13504e-05
-8.41691e-06
-1.16102e-05
-8.62854e-06
-1.18119e-05
-8.89596e-06
-1.19547e-05
-9.19409e-06
-1.20401e-05
-9.50841e-06
-1.20699e-05
-9.83118e-06
-1.20447e-05
-1.01581e-05
-1.19638e-05
-1.04859e-05
-1.18257e-05
-1.08094e-05
-1.16288e-05
-1.11195e-05
-1.13738e-05
-1.13991e-05
-1.1067e-05
-1.16189e-05
-1.0726e-05
-1.1729e-05
-1.03877e-05
-1.16479e-05
-1.0117e-05
-1.12586e-05
-1.05146e-05
-1.01299e-05
-9.29686e-06
-1.04434e-05
-8.38144e-06
-1.08407e-05
-7.96157e-06
-1.12372e-05
-7.90697e-06
-1.15875e-05
-8.06658e-06
-1.18734e-05
-8.34265e-06
-1.2091e-05
-8.67832e-06
-1.22429e-05
-9.04217e-06
-1.23335e-05
-9.41783e-06
-1.23663e-05
-9.79845e-06
-1.23424e-05
-1.0182e-05
-1.22604e-05
-1.05678e-05
-1.21167e-05
-1.09531e-05
-1.19064e-05
-1.13297e-05
-1.16264e-05
-1.16792e-05
-1.12795e-05
-1.19657e-05
-1.08826e-05
-1.21259e-05
-1.0478e-05
-1.20525e-05
-1.01466e-05
-1.15901e-05
-1.06611e-05
-1.01704e-05
-9.1265e-06
-1.056e-05
-7.99175e-06
-1.10334e-05
-7.48822e-06
-1.14885e-05
-7.45186e-06
-1.18767e-05
-7.67839e-06
-1.2183e-05
-8.03635e-06
-1.24092e-05
-8.4521e-06
-1.25636e-05
-8.88779e-06
-1.26547e-05
-9.32674e-06
-1.26886e-05
-9.76454e-06
-1.26674e-05
-1.02032e-05
-1.25887e-05
-1.06465e-05
-1.24461e-05
-1.10958e-05
-1.22299e-05
-1.15459e-05
-1.19308e-05
-1.19782e-05
-1.15454e-05
-1.23511e-05
-1.10867e-05
-1.25847e-05
-1.06009e-05
-1.25383e-05
-1.01886e-05
-1.20024e-05
-1.08497e-05
-1.02289e-05
-8.8976e-06
-1.07192e-05
-7.5014e-06
-1.12828e-05
-6.92462e-06
-1.17975e-05
-6.93723e-06
-1.22146e-05
-7.26126e-06
-1.25278e-05
-7.72316e-06
-1.27487e-05
-8.23121e-06
-1.2894e-05
-8.74248e-06
-1.29781e-05
-9.2426e-06
-1.30105e-05
-9.73216e-06
-1.29942e-05
-1.02195e-05
-1.2926e-05
-1.07147e-05
-1.27958e-05
-1.1226e-05
-1.25881e-05
-1.17536e-05
-1.22843e-05
-1.2282e-05
-1.18703e-05
-1.27651e-05
-1.13497e-05
-1.31052e-05
-1.07685e-05
-1.31195e-05
-1.02497e-05
-1.25212e-05
-1.10994e-05
-1.03146e-05
-8.58298e-06
-1.09348e-05
-6.88124e-06
-1.1597e-05
-6.26242e-06
-1.21594e-05
-6.37487e-06
-1.25823e-05
-6.83834e-06
-1.28762e-05
-7.42919e-06
-1.30684e-05
-8.03901e-06
-1.31866e-05
-8.62431e-06
-1.32523e-05
-9.17688e-06
-1.32788e-05
-9.7057e-06
-1.32705e-05
-1.02277e-05
-1.32231e-05
-1.07621e-05
-1.31231e-05
-1.1326e-05
-1.29477e-05
-1.19291e-05
-1.26668e-05
-1.25629e-05
-1.22496e-05
-1.31823e-05
-1.16812e-05
-1.36737e-05
-1.09971e-05
-1.38036e-05
-1.03407e-05
-1.31776e-05
-1.14401e-05
-1.04419e-05
-8.14104e-06
-1.12218e-05
-6.10134e-06
-1.19731e-05
-5.51117e-06
-1.25459e-05
-5.80208e-06
-1.29275e-05
-6.4567e-06
-1.31575e-05
-7.19924e-06
-1.32847e-05
-7.91182e-06
-1.33498e-05
-8.55915e-06
-1.33815e-05
-9.14519e-06
-1.3396e-05
-9.69118e-06
-1.3399e-05
-1.02247e-05
-1.33858e-05
-1.07753e-05
-1.33402e-05
-1.13716e-05
-1.3233e-05
-1.20363e-05
-1.30211e-05
-1.27748e-05
-1.26513e-05
-1.35522e-05
-1.20767e-05
-1.42482e-05
-1.13028e-05
-1.45775e-05
-1.04778e-05
-1.40026e-05
-1.19179e-05
-1.06323e-05
-7.50879e-06
-1.15872e-05
-5.14638e-06
-1.23737e-05
-4.72469e-06
-1.28722e-05
-5.30353e-06
-1.31285e-05
-6.20046e-06
-1.32261e-05
-7.10162e-06
-1.32387e-05
-7.89923e-06
-1.32181e-05
-8.57979e-06
-1.31965e-05
-9.16672e-06
-1.31915e-05
-9.69619e-06
-1.32091e-05
-1.02072e-05
-1.32448e-05
-1.07395e-05
-1.32829e-05
-1.13336e-05
-1.32913e-05
-1.20278e-05
-1.32168e-05
-1.28493e-05
-1.29811e-05
-1.37879e-05
-1.24914e-05
-1.4738e-05
-1.16891e-05
-1.53797e-05
-1.06834e-05
-1.50084e-05
-1.26013e-05
-1.09075e-05
-6.60126e-06
-1.19937e-05
-4.06027e-06
-1.26673e-05
-4.05102e-06
-1.29303e-05
-5.04051e-06
-1.29307e-05
-6.20009e-06
-1.28048e-05
-7.22752e-06
-1.26448e-05
-8.05918e-06
-1.25046e-05
-8.72001e-06
-1.2412e-05
-9.25936e-06
-1.23801e-05
-9.72808e-06
-1.24136e-05
-1.01737e-05
-1.25103e-05
-1.06428e-05
-1.26595e-05
-1.11844e-05
-1.28353e-05
-1.1852e-05
-1.29851e-05
-1.26995e-05
-1.30139e-05
-1.37591e-05
-1.27764e-05
-1.49754e-05
-1.21056e-05
-1.60505e-05
-1.09755e-05
-1.61384e-05
-1.35768e-05
-1.12514e-05
-5.34986e-06
-1.22525e-05
-3.05918e-06
-1.24936e-05
-3.80992e-06
-1.22601e-05
-5.27398e-06
-1.1837e-05
-6.62321e-06
-1.13949e-05
-7.6696e-06
-1.10174e-05
-8.43675e-06
-1.07377e-05
-8.99967e-06
-1.05658e-05
-9.43123e-06
-1.05034e-05
-9.79054e-06
-1.05509e-05
-1.01262e-05
-1.07101e-05
-1.04836e-05
-1.09822e-05
-1.09122e-05
-1.13613e-05
-1.14729e-05
-1.18176e-05
-1.22432e-05
-1.22695e-05
-1.33072e-05
-1.25426e-05
-1.47023e-05
-1.23337e-05
-1.62595e-05
-1.13209e-05
-1.71512e-05
-1.48977e-05
-1.14706e-05
-3.87923e-06
-1.1738e-05
-2.79177e-06
-1.09758e-05
-4.57215e-06
-9.92602e-06
-6.32377e-06
-8.94833e-06
-7.6009e-06
-8.16033e-06
-8.4576e-06
-7.57818e-06
-9.01889e-06
-7.18283e-06
-9.39501e-06
-6.95042e-06
-9.66365e-06
-6.86426e-06
-9.87669e-06
-6.9188e-06
-1.00717e-05
-7.12061e-06
-1.02818e-05
-7.4881e-06
-1.05447e-05
-8.04842e-06
-1.09126e-05
-8.82641e-06
-1.14652e-05
-9.81373e-06
-1.23198e-05
-1.08966e-05
-1.36195e-05
-1.17109e-05
-1.54452e-05
-1.14887e-05
-1.73733e-05
-1.63865e-05
-1.0563e-05
-3.31628e-06
-8.61372e-06
-4.741e-06
-6.20894e-06
-6.97693e-06
-4.26037e-06
-8.27235e-06
-2.85988e-06
-9.00138e-06
-1.90138e-06
-9.4161e-06
-1.26607e-06
-9.6542e-06
-8.63992e-07
-9.79709e-06
-6.3693e-07
-9.89071e-06
-5.53013e-07
-9.96061e-06
-6.01724e-07
-1.0023e-05
-7.92272e-07
-1.00912e-05
-1.15601e-06
-1.01809e-05
-1.75205e-06
-1.03166e-05
-2.67377e-06
-1.05435e-05
-4.04812e-06
-1.09455e-05
-5.99135e-06
-1.16762e-05
-8.41981e-06
-1.30168e-05
-1.04447e-05
-1.53484e-05
-1.68312e-05
-3.31628e-06
1.94272e-06
4.96579e-06
6.69345e-06
7.69206e-06
8.27596e-06
8.62175e-06
8.82466e-06
8.93395e-06
8.97334e-06
8.95035e-06
8.85911e-06
8.67816e-06
8.36158e-06
7.81806e-06
6.87257e-06
5.19634e-06
2.17959e-06
-3.16879e-06
)

[0 3 -1 1 0 0 0]

400
(
0.015
0.015
0.015
0.015
0.015
0.015
0.015
0.015
0.015
0.015
0.015
0.015
0.015
0.015
0.015
0.015
0.015
0.015
0.015
0.015
0.015
0.015
0.015
0.015
0.015
0.015
0.015
0.015
0.015
0.015
0.015
0.015
0.015
0.015
0.015
0.015
0.015
0.015
0.015
0.015
0.015
0.015
0.015
0.015
0.015
0.015
0.015
0.015
0.015
0.015
0.015
0.015
0.015
0.015
0.015
0.015
0.015
0.015
0.015
0.015
0.015
0.015
0.015
0.015
0.015
0.015
0.015
0.015
0.015
0.015
0.015
0.015
0.015
0.015
0.015
0.015
0.015
0.015
0.015
0.015
0.015
0.015
0.015
0.015
0.015
0.015
0.015
0.015
0.015
0.015
0.015
0.015
0.015
0.015
0.015
0.015
0.015
0.015
0.015
0.015
0.015
0.015
0.015
0.015
0.015
0.015
0.015
0.015
0.015
0.015
0.015
0.015
0.015
0.015
0.015
0.015
0.015
0.015
0.015
0.015
0.015
0.015
0.015
0.015
0.015
0.015
0.015
0.015
0.015
0.015
0.015
0.015
0.015
0.015
0.015
0.015
0.015
0.015
0.015
0.015
0.015
0.015
0.015
0.015
0.015
0.015
0.015
0.015
0.015
0.015
0.015
0.015
0.015
0.015
0.015
0.015
0.015
0.015
0.015
0.015
0.015
0.015
0.015
0.015
0.015
0.015
0.015
0.015
0.015
0.015
0.015
0.015
0.015
0.015
0.015
0.015
0.015
0.015
0.015
0.015
0.015
0.015
0.015
0.015
0.015
0.015
0.015
0.015
0.015
0.015
0.015
0.015
0.015
0.015
0.015
0.015
0.015
0.015
0.015
0.015
0.015
0.015
0.015
0.015
0.015
0.015
0.015
0.015
0.015
0.015
0.015
0.015
0.015
0.015
0.015
0.015
0.015
0.015
0.015
0.015
0.015
0.015
0.015
0.015
0.015
0.015
0.015
0.015
0.015
0.015
0.015
0.015
0.015
0.015
0.015
0.015
0.015
0.015
0.015
0.015
0.015
0.015
0.015
0.015
0.015
0.015
0.015
0.015
0.015
0.015
0.015
0.015
0.015
0.015
0.015
0.015
0.015
0.015
0.015
0.015
0.015
0.015
0.015
0.015
0.015
0.015
0.015
0.015
0.015
0.015
0.015
0.015
0.015
0.015
0.015
0.015
0.015
0.015
0.015
0.015
0.015
0.015
0.015
0.015
0.015
0.015
0.015
0.015
0.015
0.015
0.015
0.015
0.015
0.015
0.015
0.015
0.015
0.015
0.015
0.015
0.015
0.015
0.015
0.015
0.015
0.015
0.015
0.015
0.015
0.015
0.015
0.015
0.015
0.015
0.015
0.015
0.015
0.015
0.015
0.015
0.015
0.015
0.015
0.015
0.015
0.015
0.015
0.015
0.015
0.015
0.015
0.015
0.015
0.015
0.015
0.015
0.015
0.015
0.015
0.015
0.015
0.015
0.015
0.015
0.015
0.015
0.015
0.015
0.015
0.015
0.015
0.015
0.015
0.015
0.015
0.015
0.015
0.015
0.015
0.015
0.015
0.015
0.015
0.015
0.015
0.015
0.015
0.015
0.015
0.015
0.015
0.015
0.015
0.015
0.015
0.015
0.015
0.015
0.015
0.015
0.015
0.015
0.015
0.015
0.015
0.015
0.015
0.015
0.015
0.015
0.015
0.015
0.015
0.015
0.015
0.015
0.015
0.015
0.015
0.015
)


3
(

20
(
2e-05
2e-05
2e-05
2e-05
2e-05
2e-05
2e-05
2e-05
2e-05
2e-05
2e-05
2e-05
2e-05
2e-05
2e-05
2e-05
2e-05
2e-05
2e-05
2e-05
)


60
(
2e-05
2e-05
2e-05
2e-05
2e-05
2e-05
2e-05
2e-05
2e-05
2e-05
2e-05
2e-05
2e-05
2e-05
2e-05
2e-05
2e-05
2e-05
2e-05
2e-05
2e-05
2e-05
2e-05
2e-05
2e-05
2e-05
2e-05
2e-05
2e-05
2e-05
2e-05
2e-05
2e-05
2e-05
2e-05
2e-05
2e-05
2e-05
2e-05
2e-05
2e-05
2e-05
2e-05
2e-05
2e-05
2e-05
2e-05
2e-05
2e-05
2e-05
2e-05
2e-05
2e-05
2e-05
2e-05
2e-05
2e-05
2e-05
2e-05
2e-05
)

0()
)


3
(

20
(
0.007
0.007
0.007
0.007
0.007
0.007
0.007
0.007
0.007
0.007
0.007
0.007
0.007
0.007
0.007
0.007
0.007
0.007
0.007
0.007
)


60
(
0.006
0.006
0.006
0.006
0.006
0.006
0.006
0.006
0.006
0.006
0.006
0.006
0.006
0.006
0.006
0.006
0.006
0.006
0.006
0.006
0.006
0.006
0.006
0.006
0.006
0.006
0.006
0.006
0.006
0.006
0.006
0.006
0.006
0.006
0.006
0.006
0.006
0.006
0.006
0.006
0.006
0.006
0.006
0.006
0.006
0.006
0.006
0.006
0.006
0.006
0.006
0.006
0.006
0.006
0.006
0.006
0.006
0.006
0.006
0.006
)

0()
)


ExecutionTime = 0.01 s  ClockTime = 0 s

Time = 0.015

Courant Number mean: 0.144686 max: 0.758934
smoothSolver:  Solving for Ux, Initial residual = 0.0447632, Final residual = 9.12473e-06, No Iterations 15
smoothSolver:  Solving for Uy, Initial residual = 0.0817804, Final residual = 6.96014e-06, No Iterations 17
DICPCG:  Solving for p, Initial residual = 0.131584, Final residual = 0.00445878, No Iterations 11
time step continuity errors : sum local = 5.30007e-05, global = 2.15729e-19, cumulative = -1.26393e-19
DICPCG:  Solving for p, Initial residual = 0.0973392, Final residual = 9.15339e-07, No Iterations 31
time step continuity errors : sum local = 7.57271e-09, global = 6.03676e-19, cumulative = 4.77283e-19
true true true 
760
(
-1.00034e-05
-9.9966e-06
-9.98215e-06
-1.00213e-05
-9.94766e-06
-1.00345e-05
-9.90429e-06
-1.00434e-05
-9.85891e-06
-1.00454e-05
-9.81629e-06
-1.00426e-05
-9.77987e-06
-1.00364e-05
-9.75205e-06
-1.00278e-05
-9.73442e-06
-1.00176e-05
-9.72788e-06
-1.00065e-05
-9.73286e-06
-9.99503e-06
-9.74927e-06
-9.98359e-06
-9.77649e-06
-9.97278e-06
-9.81327e-06
-9.96323e-06
-9.85742e-06
-9.95584e-06
-9.90536e-06
-9.95206e-06
-9.95142e-06
-9.95394e-06
-9.98743e-06
-9.96398e-06
-1.00038e-05
-9.98361e-06
-1.00038e-05
-9.98821e-06
-1.00084e-05
-9.93159e-06
-1.00779e-05
-9.84272e-06
-1.01234e-05
-9.73965e-06
-1.01464e-05
-9.63384e-06
-1.01512e-05
-9.5347e-06
-1.01418e-05
-9.44968e-06
-1.01214e-05
-9.38432e-06
-1.00932e-05
-9.34245e-06
-1.00595e-05
-9.3264e-06
-1.00226e-05
-9.33719e-06
-9.98423e-06
-9.37464e-06
-9.94614e-06
-9.43721e-06
-9.9102e-06
-9.52175e-06
-9.87869e-06
-9.62297e-06
-9.85463e-06
-9.73282e-06
-9.84221e-06
-9.83989e-06
-9.84687e-06
-9.92922e-06
-9.87466e-06
-9.98468e-06
-9.92815e-06
-9.9885e-06
-9.96181e-06
-1.00466e-05
-9.86655e-06
-1.01731e-05
-9.73177e-06
-1.02581e-05
-9.58059e-06
-1.02976e-05
-9.42904e-06
-1.03027e-05
-9.28934e-06
-1.02815e-05
-9.17088e-06
-1.02399e-05
-9.08066e-06
-1.01834e-05
-9.02357e-06
-1.01166e-05
-9.00261e-06
-1.00435e-05
-9.01915e-06
-9.96769e-06
-9.07289e-06
-9.8924e-06
-9.1617e-06
-9.8214e-06
-9.28123e-06
-9.75916e-06
-9.42439e-06
-9.71146e-06
-9.58067e-06
-9.68593e-06
-9.73554e-06
-9.692e-06
-9.87033e-06
-9.73987e-06
-9.96403e-06
-9.83444e-06
-9.95253e-06
-9.94569e-06
-1.01009e-05
-9.81542e-06
-1.03034e-05
-9.63898e-06
-1.04346e-05
-9.44499e-06
-1.04916e-05
-9.25408e-06
-1.04937e-05
-9.08097e-06
-1.04546e-05
-8.93623e-06
-1.03846e-05
-8.82739e-06
-1.02922e-05
-8.7596e-06
-1.01844e-05
-8.73595e-06
-1.00672e-05
-8.75778e-06
-9.94585e-06
-8.82468e-06
-9.82551e-06
-8.93424e-06
-9.71185e-06
-9.08154e-06
-9.61185e-06
-9.25852e-06
-9.53449e-06
-9.4531e-06
-9.49134e-06
-9.64849e-06
-9.49662e-06
-9.82252e-06
-9.56584e-06
-9.94864e-06
-9.70833e-06
-9.90117e-06
-9.93339e-06
-1.01675e-05
-9.77447e-06
-1.04623e-05
-9.56125e-06
-1.06478e-05
-9.32806e-06
-1.07248e-05
-9.10053e-06
-1.07212e-05
-8.89631e-06
-1.06588e-05
-8.72731e-06
-1.05536e-05
-8.60143e-06
-1.04181e-05
-8.52373e-06
-1.02621e-05
-8.49716e-06
-1.00938e-05
-8.52292e-06
-9.92009e-06
-8.60055e-06
-9.74788e-06
-8.72762e-06
-9.58478e-06
-8.8991e-06
-9.44036e-06
-9.10645e-06
-9.32714e-06
-9.33643e-06
-9.26136e-06
-9.56989e-06
-9.26316e-06
-9.78071e-06
-9.35502e-06
-9.93605e-06
-9.55299e-06
-9.83722e-06
-9.92173e-06
-1.02458e-05
-9.73503e-06
-1.0649e-05
-9.48523e-06
-1.08976e-05
-9.21276e-06
-1.09972e-05
-8.94827e-06
-1.09857e-05
-8.71257e-06
-1.08945e-05
-8.51898e-06
-1.07472e-05
-8.37566e-06
-1.05614e-05
-8.28744e-06
-1.03503e-05
-8.25696e-06
-1.01242e-05
-8.28529e-06
-9.89176e-06
-8.37209e-06
-9.66108e-06
-8.51524e-06
-9.44163e-06
-8.71002e-06
-9.24558e-06
-8.94779e-06
-9.08937e-06
-9.21432e-06
-8.99483e-06
-9.48788e-06
-8.98959e-06
-9.73762e-06
-9.10528e-06
-9.92337e-06
-9.36725e-06
-9.76058e-06
-9.90809e-06
-1.03377e-05
-9.6894e-06
-1.08677e-05
-9.39825e-06
-1.11887e-05
-9.08254e-06
-1.1313e-05
-8.77821e-06
-1.129e-05
-8.50914e-06
-1.11636e-05
-8.28978e-06
-1.09666e-05
-8.12823e-06
-1.0723e-05
-8.02874e-06
-1.04498e-05
-7.99342e-06
-1.01596e-05
-8.02321e-06
-9.86197e-06
-8.11811e-06
-9.56619e-06
-8.27674e-06
-9.283e-06
-8.49524e-06
-9.02707e-06
-8.76547e-06
-8.81914e-06
-9.07251e-06
-8.6878e-06
-9.39184e-06
-8.67026e-06
-9.68686e-06
-8.81026e-06
-9.90831e-06
-9.1458e-06
-9.66889e-06
-9.89042e-06
-1.04473e-05
-9.63135e-06
-1.11268e-05
-9.29006e-06
-1.153e-05
-8.92412e-06
-1.16789e-05
-8.57549e-06
-1.16386e-05
-8.27076e-06
-1.14683e-05
-8.02481e-06
-1.12125e-05
-7.84485e-06
-1.09029e-05
-7.7339e-06
-1.05608e-05
-7.69318e-06
-1.02003e-05
-7.72338e-06
-9.83177e-06
-7.8251e-06
-9.46447e-06
-7.99828e-06
-9.10982e-06
-8.24079e-06
-8.78457e-06
-8.5459e-06
-8.51403e-06
-8.89874e-06
-8.33495e-06
-9.27208e-06
-8.29691e-06
-9.62242e-06
-8.45993e-06
-9.88879e-06
-8.87942e-06
-9.55768e-06
-9.86662e-06
-1.05806e-05
-9.55522e-06
-1.14382e-05
-9.15183e-06
-1.19334e-05
-8.72705e-06
-1.21037e-05
-8.32962e-06
-1.20361e-05
-7.98809e-06
-1.18098e-05
-7.71638e-06
-1.14842e-05
-7.5195e-06
-1.10998e-05
-7.39817e-06
-1.06821e-05
-7.35203e-06
-1.02464e-05
-7.38135e-06
-9.80245e-06
-7.48758e-06
-9.35824e-06
-7.67275e-06
-8.92464e-06
-7.93768e-06
-8.51964e-06
-8.27859e-06
-8.17312e-06
-8.68213e-06
-7.93141e-06
-9.11907e-06
-7.85997e-06
-9.53795e-06
-8.04105e-06
-9.86247e-06
-8.5549e-06
-9.42016e-06
-9.83422e-06
-1.07464e-05
-9.45488e-06
-1.18175e-05
-8.97521e-06
-1.24131e-05
-8.48314e-06
-1.25957e-05
-8.03464e-06
-1.24846e-05
-7.65856e-06
-1.21859e-05
-7.36556e-06
-1.17772e-05
-7.15636e-06
-1.1309e-05
-7.02786e-06
-1.08106e-05
-6.97717e-06
-1.02971e-05
-7.00378e-06
-9.77583e-06
-7.11028e-06
-9.25174e-06
-7.30172e-06
-8.7332e-06
-7.5835e-06
-8.23786e-06
-7.95711e-06
-7.79951e-06
-8.41332e-06
-7.4752e-06
-8.92286e-06
-7.35044e-06
-9.42596e-06
-7.53795e-06
-9.82631e-06
-8.15455e-06
-9.24647e-06
-9.78976e-06
-1.09567e-05
-9.32283e-06
-1.22845e-05
-8.75202e-06
-1.29839e-05
-8.1874e-06
-1.31604e-05
-7.69132e-06
-1.29807e-05
-7.28962e-06
-1.25876e-05
-6.98612e-06
-1.20808e-05
-6.77427e-06
-1.15209e-05
-6.64515e-06
-1.09397e-05
-6.59216e-06
-1.03501e-05
-6.61356e-06
-9.75443e-06
-6.71324e-06
-9.15206e-06
-6.90027e-06
-8.54617e-06
-7.18661e-06
-7.95152e-06
-7.58223e-06
-7.40389e-06
-8.08625e-06
-6.97118e-06
-8.67341e-06
-6.76328e-06
-9.27715e-06
-6.93421e-06
-9.77597e-06
-7.65573e-06
-9.02243e-06
-9.72787e-06
-1.12288e-05
-9.14961e-06
-1.28627e-05
-8.47543e-06
-1.36581e-05
-7.84157e-06
-1.37942e-05
-7.3128e-06
-1.35094e-05
-6.90593e-06
-1.29945e-05
-6.6125e-06
-1.23742e-05
-6.41504e-06
-1.17183e-05
-6.29655e-06
-1.10582e-05
-6.2456e-06
-1.04011e-05
-6.25863e-06
-9.7414e-06
-6.34087e-06
-9.06983e-06
-6.50607e-06
-8.38097e-06
-6.77478e-06
-7.68281e-06
-7.1693e-06
-7.00937e-06
-7.70321e-06
-6.43726e-06
-8.36285e-06
-6.10365e-06
-9.08027e-06
-6.21679e-06
-9.70495e-06
-7.03105e-06
-8.72738e-06
-9.64004e-06
-1.15888e-05
-8.92423e-06
-1.35785e-05
-8.14449e-06
-1.44378e-05
-7.46277e-06
-1.4476e-05
-6.93625e-06
-1.40359e-05
-6.56238e-06
-1.33684e-05
-6.31341e-06
-1.26231e-05
-6.15701e-06
-1.18747e-05
-6.0664e-06
-1.11488e-05
-6.0246e-06
-1.04429e-05
-6.02585e-06
-9.74015e-06
-6.07628e-06
-9.0194e-06
-6.1943e-06
-8.26295e-06
-6.41007e-06
-7.46704e-06
-6.76193e-06
-6.65751e-06
-7.28575e-06
-5.91345e-06
-7.99167e-06
-5.39773e-06
-8.82336e-06
-5.3851e-06
-9.60347e-06
-6.25095e-06
-8.33085e-06
-9.51322e-06
-1.20755e-05
-8.63772e-06
-1.4454e-05
-7.77567e-06
-1.52999e-05
-7.10158e-06
-1.515e-05
-6.64413e-06
-1.44934e-05
-6.36623e-06
-1.36463e-05
-6.21311e-06
-1.27763e-05
-6.13511e-06
-1.19527e-05
-6.09581e-06
-1.11881e-05
-6.07336e-06
-1.04653e-05
-6.05986e-06
-9.75364e-06
-6.06144e-06
-9.01783e-06
-6.09942e-06
-8.22497e-06
-6.21232e-06
-7.35414e-06
-6.45588e-06
-6.41395e-06
-6.89585e-06
-5.47348e-06
-7.58334e-06
-4.71024e-06
-8.49913e-06
-4.46931e-06
-9.45731e-06
-5.29276e-06
-7.78816e-06
-9.32933e-06
-1.27462e-05
-8.29508e-06
-1.54883e-05
-7.42953e-06
-1.61654e-05
-6.87706e-06
-1.57025e-05
-6.60077e-06
-1.47697e-05
-6.51085e-06
-1.37362e-05
-6.52105e-06
-1.27661e-05
-6.56675e-06
-1.1907e-05
-6.60603e-06
-1.11488e-05
-6.61535e-06
-1.0456e-05
-6.5858e-06
-9.78319e-06
-6.52191e-06
-9.08171e-06
-6.44384e-06
-8.30304e-06
-6.39263e-06
-7.40535e-06
-6.43684e-06
-6.36973e-06
-6.67452e-06
-5.2358e-06
-7.21603e-06
-4.16873e-06
-8.12124e-06
-3.5641e-06
-9.24881e-06
-4.16519e-06
-7.03697e-06
-9.07285e-06
-1.36734e-05
-7.95231e-06
-1.66088e-05
-7.26979e-06
-1.68479e-05
-7.04021e-06
-1.59321e-05
-7.10874e-06
-1.47011e-05
-7.32136e-06
-1.35236e-05
-7.56751e-06
-1.25199e-05
-7.77976e-06
-1.16948e-05
-7.9213e-06
-1.10073e-05
-7.97382e-06
-1.04035e-05
-7.9299e-06
-9.82711e-06
-7.79057e-06
-9.22105e-06
-7.5679e-06
-8.52571e-06
-7.29353e-06
-7.67973e-06
-7.03343e-06
-6.62983e-06
-6.90578e-06
-5.36346e-06
-7.0872e-06
-3.9873e-06
-7.76987e-06
-2.88142e-06
-8.96942e-06
-2.96564e-06
-6.00639e-06
-8.76806e-06
-1.49053e-05
-7.81779e-06
-1.75591e-05
-7.68539e-06
-1.69803e-05
-8.07909e-06
-1.55384e-05
-8.68433e-06
-1.40959e-05
-9.3028e-06
-1.29051e-05
-9.83185e-06
-1.19909e-05
-1.02281e-05
-1.12986e-05
-1.04774e-05
-1.07579e-05
-1.05767e-05
-1.03042e-05
-1.05238e-05
-9.87997e-06
-1.03148e-05
-9.43011e-06
-9.94546e-06
-8.89503e-06
-9.42093e-06
-8.20426e-06
-8.77561e-06
-7.27515e-06
-8.1089e-06
-6.03017e-06
-7.63266e-06
-4.46354e-06
-7.70186e-06
-2.81222e-06
-8.66823e-06
-1.99928e-06
-4.67462e-06
-8.60013e-06
-1.63052e-05
-8.50599e-06
-1.76532e-05
-9.52288e-06
-1.59634e-05
-1.08664e-05
-1.41949e-05
-1.21267e-05
-1.28356e-05
-1.31568e-05
-1.18751e-05
-1.39295e-05
-1.12182e-05
-1.44634e-05
-1.07646e-05
-1.4786e-05
-1.04354e-05
-1.49173e-05
-1.01729e-05
-1.48639e-05
-9.93332e-06
-1.46169e-05
-9.67715e-06
-1.41516e-05
-9.36033e-06
-1.3432e-05
-8.92379e-06
-1.24256e-05
-8.28153e-06
-1.11424e-05
-7.31337e-06
-9.72096e-06
-5.88502e-06
-8.58811e-06
-3.94507e-06
-8.58531e-06
-2.00208e-06
-3.25993e-06
-9.54222e-06
-1.6763e-05
-1.17491e-05
-1.54464e-05
-1.44877e-05
-1.32248e-05
-1.6776e-05
-1.19065e-05
-1.84716e-05
-1.11401e-05
-1.96614e-05
-1.06852e-05
-2.04658e-05
-1.04137e-05
-2.09842e-05
-1.02462e-05
-2.12846e-05
-1.0135e-05
-2.14059e-05
-1.00516e-05
-2.13617e-05
-9.97756e-06
-2.11412e-05
-9.89757e-06
-2.07075e-05
-9.79406e-06
-1.9991e-05
-9.64032e-06
-1.88835e-05
-9.38898e-06
-1.7244e-05
-8.95293e-06
-1.49548e-05
-8.1742e-06
-1.21327e-05
-6.76715e-06
-9.74673e-06
-4.38804e-06
-3.00666e-06
-1.6763e-05
-2.22093e-05
-2.54341e-05
-2.73406e-05
-2.84807e-05
-2.9166e-05
-2.95797e-05
-2.98259e-05
-2.99609e-05
-3.00125e-05
-2.99901e-05
-2.98876e-05
-2.96817e-05
-2.9322e-05
-2.8711e-05
-2.76639e-05
-2.58381e-05
-2.26053e-05
-1.69933e-05
)

400
(
7e-05
8e-05
8e-05
8e-05
8e-05
8e-05
8e-05
8e-05
8e-05
8e-05
8e-05
8e-05
8e-05
8e-05
8e-05
8e-05
8e-05
8e-05
8e-05
7e-05
8e-05
9e-05
9e-05
9e-05
9e-05
9e-05
9e-05
9e-05
9e-05
9e-05
9e-05
9e-05
9e-05
9e-05
9e-05
9e-05
9e-05
9e-05
9e-05
8e-05
8e-05
9e-05
9e-05
9e-05
9e-05
9e-05
9e-05
9e-05
9e-05
9e-05
9e-05
9e-05
9e-05
9e-05
9e-05
9e-05
9e-05
9e-05
9e-05
8e-05
8e-05
9e-05
9e-05
9e-05
9e-05
9e-05
9e-05
9e-05
9e-05
9e-05
9e-05
9e-05
9e-05
9e-05
9e-05
9e-05
9e-05
9e-05
9e-05
8e-05
8e-05
9e-05
9e-05
9e-05
9e-05
9e-05
9e-05
9e-05
9e-05
9e-05
9e-05
9e-05
9e-05
9e-05
9e-05
9e-05
9e-05
9e-05
9e-05
8e-05
8e-05
9e-05
9e-05
9e-05
9e-05
9e-05
9e-05
9e-05
9e-05
9e-05
9e-05
9e-05
9e-05
9e-05
9e-05
9e-05
9e-05
9e-05
9e-05
8e-05
8e-05
9e-05
9e-05
9e-05
9e-05
9e-05
9e-05
9e-05
9e-05
9e-05
9e-05
9e-05
9e-05
9e-05
9e-05
9e-05
9e-05
9e-05
9e-05
8e-05
8e-05
9e-05
9e-05
9e-05
9e-05
9e-05
9e-05
9e-05
9e-05
9e-05
9e-05
9e-05
9e-05
9e-05
9e-05
9e-05
9e-05
9e-05
9e-05
8e-05
8e-05
9e-05
9e-05
9e-05
9e-05
9e-05
9e-05
9e-05
9e-05
9e-05
9e-05
9e-05
9e-05
9e-05
9e-05
9e-05
9e-05
9e-05
9e-05
8e-05
8e-05
9e-05
9e-05
9e-05
9e-05
9e-05
9e-05
9e-05
9e-05
9e-05
9e-05
9e-05
9e-05
9e-05
9e-05
9e-05
9e-05
9e-05
9e-05
8e-05
8e-05
9e-05
9e-05
9e-05
9e-05
9e-05
9e-05
9e-05
9e-05
9e-05
9e-05
9e-05
9e-05
9e-05
9e-05
9e-05
9e-05
9e-05
9e-05
8e-05
8e-05
9e-05
9e-05
9e-05
9e-05
9e-05
9e-05
9e-05
9e-05
9e-05
9e-05
9e-05
9e-05
9e-05
9e-05
9e-05
9e-05
9e-05
9e-05
8e-05
8e-05
9e-05
9e-05
9e-05
9e-05
9e-05
9e-05
9e-05
9e-05
9e-05
9e-05
9e-05
9e-05
9e-05
9e-05
9e-05
9e-05
9e-05
9e-05
8e-05
8e-05
9e-05
9e-05
9e-05
9e-05
9e-05
9e-05
9e-05
9e-05
9e-05
9e-05
9e-05
9e-05
9e-05
9e-05
9e-05
9e-05
9e-05
9e-05
8e-05
8e-05
9e-05
9e-05
9e-05
9e-05
9e-05
9e-05
9e-05
9e-05
9e-05
9e-05
9e-05
9e-05
9e-05
9e-05
9e-05
9e-05
9e-05
9e-05
8e-05
8e-05
9e-05
9e-05
9e-05
9e-05
9e-05
9e-05
9e-05
9e-05
9e-05
9e-05
9e-05
9e-05
9e-05
9e-05
9e-05
9e-05
9e-05
9e-05
8e-05
8e-05
9e-05
9e-05
9e-05
9e-05
9e-05
9e-05
9e-05
9e-05
9e-05
9e-05
9e-05
9e-05
9e-05
9e-05
9e-05
9e-05
9e-05
9e-05
8e-05
8e-05
9e-05
9e-05
9e-05
9e-05
9e-05
9e-05
9e-05
9e-05
9e-05
9e-05
9e-05
9e-05
9e-05
9e-05
9e-05
9e-05
9e-05
9e-05
8e-05
8e-05
9e-05
9e-05
9e-05
9e-05
9e-05
9e-05
9e-05
9e-05
9e-05
9e-05
9e-05
9e-05
9e-05
9e-05
9e-05
9e-05
9e-05
9e-05
8e-05
7e-05
8e-05
8e-05
8e-05
8e-05
8e-05
8e-05
8e-05
8e-05
8e-05
8e-05
8e-05
8e-05
8e-05
8e-05
8e-05
8e-05
8e-05
8e-05
7e-05
)

760
(
-9.9966e-06
-1.00034e-05
-1.00179e-05
-9.97874e-06
-1.00523e-05
-9.96551e-06
-1.00957e-05
-9.95662e-06
-1.01411e-05
-9.95463e-06
-1.01837e-05
-9.95738e-06
-1.02201e-05
-9.96358e-06
-1.0248e-05
-9.97218e-06
-1.02656e-05
-9.98237e-06
-1.02721e-05
-9.99347e-06
-1.02671e-05
-1.0005e-05
-1.02507e-05
-1.00164e-05
-1.02235e-05
-1.00272e-05
-1.01867e-05
-1.00368e-05
-1.01426e-05
-1.00442e-05
-1.00946e-05
-1.00479e-05
-1.00486e-05
-1.00461e-05
-1.00126e-05
-1.0036e-05
-9.99618e-06
-1.00164e-05
-9.99618e-06
-1.00118e-05
-9.99162e-06
-1.00684e-05
-9.92212e-06
-1.01573e-05
-9.87664e-06
-1.02603e-05
-9.85356e-06
-1.03662e-05
-9.84882e-06
-1.04653e-05
-9.85824e-06
-1.05503e-05
-9.87856e-06
-1.06157e-05
-9.90682e-06
-1.06576e-05
-9.94049e-06
-1.06736e-05
-9.97741e-06
-1.06628e-05
-1.00158e-05
-1.06254e-05
-1.00539e-05
-1.05628e-05
-1.00898e-05
-1.04783e-05
-1.01213e-05
-1.0377e-05
-1.01454e-05
-1.02672e-05
-1.01578e-05
-1.01601e-05
-1.01531e-05
-1.00708e-05
-1.01253e-05
-1.00153e-05
-1.00718e-05
-1.00115e-05
-1.00382e-05
-9.95342e-06
-1.01334e-05
-9.82686e-06
-1.02682e-05
-9.74186e-06
-1.04194e-05
-9.70239e-06
-1.0571e-05
-9.69726e-06
-1.07107e-05
-9.71854e-06
-1.08291e-05
-9.7601e-06
-1.09193e-05
-9.81661e-06
-1.09764e-05
-9.8834e-06
-1.09974e-05
-9.95646e-06
-1.09808e-05
-1.00323e-05
-1.09271e-05
-1.01076e-05
-1.08383e-05
-1.01786e-05
-1.07188e-05
-1.02408e-05
-1.05756e-05
-1.02885e-05
-1.04193e-05
-1.03141e-05
-1.02645e-05
-1.0308e-05
-1.01297e-05
-1.02601e-05
-1.0036e-05
-1.01656e-05
-1.00475e-05
-1.00543e-05
-9.89912e-06
-1.01846e-05
-9.69659e-06
-1.0361e-05
-9.56542e-06
-1.0555e-05
-9.5084e-06
-1.07459e-05
-9.50634e-06
-1.0919e-05
-9.54543e-06
-1.10638e-05
-9.61536e-06
-1.11726e-05
-9.70777e-06
-1.12404e-05
-9.8156e-06
-1.12641e-05
-9.93281e-06
-1.12422e-05
-1.00541e-05
-1.11753e-05
-1.01745e-05
-1.10658e-05
-1.02882e-05
-1.09185e-05
-1.03881e-05
-1.07415e-05
-1.04655e-05
-1.05469e-05
-1.05087e-05
-1.03515e-05
-1.05034e-05
-1.01775e-05
-1.04342e-05
-1.00514e-05
-1.02917e-05
-1.00988e-05
-1.00666e-05
-9.8325e-06
-1.02255e-05
-9.53766e-06
-1.04388e-05
-9.35221e-06
-1.06719e-05
-9.27521e-06
-1.08995e-05
-9.2788e-06
-1.11037e-05
-9.34121e-06
-1.12727e-05
-9.44637e-06
-1.13986e-05
-9.58189e-06
-1.14763e-05
-9.7379e-06
-1.15028e-05
-9.90624e-06
-1.14771e-05
-1.00799e-05
-1.13995e-05
-1.02521e-05
-1.12724e-05
-1.04152e-05
-1.11009e-05
-1.05596e-05
-1.08935e-05
-1.06729e-05
-1.06636e-05
-1.07386e-05
-1.04301e-05
-1.07368e-05
-1.02193e-05
-1.0645e-05
-1.0064e-05
-1.0447e-05
-1.01628e-05
-1.00783e-05
-9.75423e-06
-1.0265e-05
-9.35097e-06
-1.05148e-05
-9.1024e-06
-1.07872e-05
-9.00275e-06
-1.10517e-05
-9.01432e-06
-1.12874e-05
-9.10551e-06
-1.1481e-05
-9.25277e-06
-1.16243e-05
-9.43857e-06
-1.17126e-05
-9.64968e-06
-1.1743e-05
-9.87575e-06
-1.17147e-05
-1.01082e-05
-1.16279e-05
-1.03389e-05
-1.14848e-05
-1.05584e-05
-1.129e-05
-1.07544e-05
-1.10522e-05
-1.09106e-05
-1.07857e-05
-1.10052e-05
-1.05121e-05
-1.10104e-05
-1.02624e-05
-1.08947e-05
-1.00766e-05
-1.06328e-05
-1.02394e-05
-1.00919e-05
-9.66233e-06
-1.03106e-05
-9.13227e-06
-1.06017e-05
-8.81126e-06
-1.09175e-05
-8.68704e-06
-1.12218e-05
-8.70998e-06
-1.14909e-05
-8.83643e-06
-1.17102e-05
-9.03342e-06
-1.18718e-05
-9.27702e-06
-1.19713e-05
-9.55019e-06
-1.20066e-05
-9.84044e-06
-1.19768e-05
-1.0138e-05
-1.18819e-05
-1.04338e-05
-1.17233e-05
-1.0717e-05
-1.15048e-05
-1.09729e-05
-1.12345e-05
-1.11809e-05
-1.09275e-05
-1.13122e-05
-1.06082e-05
-1.13297e-05
-1.03131e-05
-1.11897e-05
-1.00917e-05
-1.08542e-05
-1.03311e-05
-1.01096e-05
-9.55275e-06
-1.03686e-05
-8.8732e-06
-1.07099e-05
-8.46996e-06
-1.10759e-05
-8.32111e-06
-1.14245e-05
-8.36135e-06
-1.17292e-05
-8.5317e-06
-1.19752e-05
-8.78747e-06
-1.21552e-05
-9.09706e-06
-1.22661e-05
-9.43924e-06
-1.23068e-05
-9.79972e-06
-1.22766e-05
-1.01682e-05
-1.21749e-05
-1.05355e-05
-1.20017e-05
-1.08902e-05
-1.17592e-05
-1.12154e-05
-1.14541e-05
-1.1486e-05
-1.11013e-05
-1.1665e-05
-1.07279e-05
-1.17031e-05
-1.03776e-05
-1.15401e-05
-1.01112e-05
-1.11206e-05
-1.04423e-05
-1.01334e-05
-9.41936e-06
-1.04448e-05
-8.56181e-06
-1.08482e-05
-8.06657e-06
-1.1273e-05
-7.89633e-06
-1.16704e-05
-7.96393e-06
-1.20119e-05
-8.19017e-06
-1.22836e-05
-8.51575e-06
-1.24805e-05
-8.90018e-06
-1.26018e-05
-9.31791e-06
-1.2648e-05
-9.75357e-06
-1.26187e-05
-1.01976e-05
-1.25124e-05
-1.06418e-05
-1.23272e-05
-1.10754e-05
-1.20623e-05
-1.14804e-05
-1.17214e-05
-1.18269e-05
-1.13179e-05
-1.20686e-05
-1.08809e-05
-1.214e-05
-1.0462e-05
-1.19589e-05
-1.01375e-05
-1.14451e-05
-1.05798e-05
-1.01658e-05
-9.25358e-06
-1.05451e-05
-8.18247e-06
-1.10248e-05
-7.5869e-06
-1.15169e-05
-7.40426e-06
-1.19654e-05
-7.51543e-06
-1.23414e-05
-7.81409e-06
-1.26344e-05
-8.22275e-06
-1.28436e-05
-8.69099e-06
-1.29721e-05
-9.1894e-06
-1.30228e-05
-9.70288e-06
-1.29962e-05
-1.02242e-05
-1.28897e-05
-1.07483e-05
-1.26983e-05
-1.12668e-05
-1.24165e-05
-1.17621e-05
-1.20429e-05
-1.22005e-05
-1.15867e-05
-1.25248e-05
-1.10771e-05
-1.26496e-05
-1.0574e-05
-1.2462e-05
-1.01737e-05
-1.18455e-05
-1.07535e-05
-1.02102e-05
-9.04334e-06
-1.06772e-05
-7.71554e-06
-1.1248e-05
-7.01609e-06
-1.18126e-05
-6.83964e-06
-1.23087e-05
-7.01934e-06
-1.27104e-05
-7.4124e-06
-1.30139e-05
-7.91925e-06
-1.32257e-05
-8.47915e-06
-1.33549e-05
-9.06028e-06
-1.34078e-05
-9.64989e-06
-1.33864e-05
-1.02456e-05
-1.32868e-05
-1.08479e-05
-1.30997e-05
-1.14538e-05
-1.28134e-05
-1.20485e-05
-1.24178e-05
-1.25961e-05
-1.19138e-05
-1.30288e-05
-1.13266e-05
-1.32367e-05
-1.07228e-05
-1.30658e-05
-1.0224e-05
-1.23443e-05
-1.09776e-05
-1.02721e-05
-8.77121e-06
-1.08504e-05
-7.13728e-06
-1.15246e-05
-6.34192e-06
-1.21584e-05
-6.20577e-06
-1.26872e-05
-6.49058e-06
-1.30941e-05
-7.00552e-06
-1.33875e-05
-7.62582e-06
-1.3585e-05
-8.28168e-06
-1.37034e-05
-8.94179e-06
-1.37544e-05
-9.59894e-06
-1.37414e-05
-1.02586e-05
-1.36591e-05
-1.09302e-05
-1.34939e-05
-1.1619e-05
-1.32252e-05
-1.23172e-05
-1.28307e-05
-1.29906e-05
-1.22968e-05
-1.35627e-05
-1.16372e-05
-1.38964e-05
-1.09197e-05
-1.37832e-05
-1.02951e-05
-1.29689e-05
-1.12726e-05
-1.036e-05
-8.41124e-06
-1.10758e-05
-6.42148e-06
-1.18555e-05
-5.56218e-06
-1.25372e-05
-5.52405e-06
-1.30638e-05
-5.96406e-06
-1.34376e-05
-6.63165e-06
-1.36866e-05
-7.37686e-06
-1.3843e-05
-8.12527e-06
-1.39336e-05
-8.85118e-06
-1.39754e-05
-9.55714e-06
-1.39741e-05
-1.02599e-05
-1.39237e-05
-1.09806e-05
-1.38057e-05
-1.1737e-05
-1.35899e-05
-1.2533e-05
-1.32381e-05
-1.33425e-05
-1.27142e-05
-1.40866e-05
-1.20083e-05
-1.46023e-05
-1.11766e-05
-1.46149e-05
-1.03965e-05
-1.37491e-05
-1.16692e-05
-1.04868e-05
-7.92446e-06
-1.13623e-05
-5.54599e-06
-1.22243e-05
-4.70013e-06
-1.28984e-05
-4.84996e-06
-1.33559e-05
-5.50661e-06
-1.36338e-05
-6.35374e-06
-1.37869e-05
-7.22374e-06
-1.38649e-05
-8.04727e-06
-1.39042e-05
-8.81189e-06
-1.39266e-05
-9.53468e-06
-1.39401e-05
-1.02464e-05
-1.39386e-05
-1.09822e-05
-1.39006e-05
-1.1775e-05
-1.37877e-05
-1.26459e-05
-1.35441e-05
-1.35861e-05
-1.31042e-05
-1.45265e-05
-1.24167e-05
-1.52898e-05
-1.15009e-05
-1.55307e-05
-1.05427e-05
-1.47072e-05
-1.22118e-05
-1.06707e-05
-7.25379e-06
-1.17049e-05
-4.51174e-06
-1.25705e-05
-3.83458e-06
-1.31229e-05
-4.29749e-06
-1.33992e-05
-5.23032e-06
-1.34891e-05
-6.26382e-06
-1.34789e-05
-7.23394e-06
-1.34332e-05
-8.09297e-06
-1.3394e-05
-8.85116e-06
-1.33847e-05
-9.54401e-06
-1.34142e-05
-1.02168e-05
-1.34781e-05
-1.09183e-05
-1.35562e-05
-1.1697e-05
-1.36074e-05
-1.25946e-05
-1.35632e-05
-1.36303e-05
-1.33255e-05
-1.47642e-05
-1.2784e-05
-1.58313e-05
-1.18788e-05
-1.64359e-05
-1.07512e-05
-1.58348e-05
-1.2963e-05
-1.09271e-05
-6.32664e-06
-1.20477e-05
-3.3912e-06
-1.27302e-05
-3.15206e-06
-1.29598e-05
-4.06791e-06
-1.28913e-05
-5.29886e-06
-1.26786e-05
-6.47644e-06
-1.24325e-05
-7.48009e-06
-1.22202e-05
-8.30522e-06
-1.20787e-05
-8.99271e-06
-1.20262e-05
-9.59652e-06
-1.20701e-05
-1.01729e-05
-1.22094e-05
-1.0779e-05
-1.24321e-05
-1.14743e-05
-1.27065e-05
-1.23203e-05
-1.29666e-05
-1.33702e-05
-1.30942e-05
-1.46365e-05
-1.29128e-05
-1.60127e-05
-1.22301e-05
-1.71186e-05
-1.10306e-05
-1.70344e-05
-1.39936e-05
-1.12319e-05
-5.0947e-06
-1.21822e-05
-2.44092e-06
-1.23146e-05
-3.01967e-06
-1.19209e-05
-4.4616e-06
-1.13157e-05
-5.9041e-06
-1.06972e-05
-7.09491e-06
-1.01681e-05
-8.00914e-06
-9.77194e-06
-8.70143e-06
-9.52258e-06
-9.24207e-06
-9.42331e-06
-9.69579e-06
-9.47616e-06
-1.012e-05
-9.68522e-06
-1.05699e-05
-1.00545e-05
-1.1105e-05
-1.05791e-05
-1.17957e-05
-1.12244e-05
-1.27249e-05
-1.18911e-05
-1.39698e-05
-1.23673e-05
-1.55365e-05
-1.22981e-05
-1.71878e-05
-1.13318e-05
-1.80007e-05
-1.53254e-05
-1.13999e-05
-3.69483e-06
-1.1494e-05
-2.34678e-06
-1.04771e-05
-4.03655e-06
-9.13358e-06
-5.80514e-06
-7.87325e-06
-7.16443e-06
-6.84323e-06
-8.12493e-06
-6.07053e-06
-8.78184e-06
-5.5366e-06
-9.23536e-06
-5.21404e-06
-9.56463e-06
-5.08274e-06
-9.82709e-06
-5.1361e-06
-1.00667e-05
-5.38314e-06
-1.03228e-05
-5.84844e-06
-1.06397e-05
-6.56797e-06
-1.10762e-05
-7.57436e-06
-1.17185e-05
-8.85756e-06
-1.26866e-05
-1.0279e-05
-1.4115e-05
-1.14119e-05
-1.60549e-05
-1.14147e-05
-1.79979e-05
-1.67401e-05
-1.04578e-05
-3.23705e-06
-8.25093e-06
-4.55363e-06
-5.51231e-06
-6.77518e-06
-3.22395e-06
-8.0935e-06
-1.52845e-06
-8.85994e-06
-3.38629e-07
-9.31475e-06
4.65816e-07
-9.58628e-06
9.84223e-07
-9.75376e-06
1.2846e-06
-9.86501e-06
1.4059e-06
-9.94838e-06
1.36165e-06
-1.00224e-05
1.14124e-06
-1.01024e-05
7.07506e-07
-1.02059e-05
-9.0285e-09
-1.03597e-05
-1.11648e-06
-1.0611e-05
-2.75604e-06
-1.10471e-05
-5.04521e-06
-1.18258e-05
-7.8673e-06
-1.32328e-05
-1.02533e-05
-1.5612e-05
-1.69933e-05
-3.23705e-06
2.20932e-06
5.43415e-06
7.34065e-06
8.48071e-06
9.16596e-06
9.57968e-06
9.82591e-06
9.9609e-06
1.00125e-05
9.99008e-06
9.88764e-06
9.68171e-06
9.32203e-06
8.71101e-06
7.66394e-06
5.83814e-06
2.60529e-06
-3.00666e-06
)

[0 3 -1 1 0 0 0]

400
(
0.015
0.015
0.015
0.015
0.015
0.015
0.015
0.015
0.015
0.015
0.015
0.015
0.015
0.015
0.015
0.015
0.015
0.015
0.015
0.015
0.015
0.015
0.015
0.015
0.015
0.015
0.015
0.015
0.015
0.015
0.015
0.015
0.015
0.015
0.015
0.015
0.015
0.015
0.015
0.015
0.015
0.015
0.015
0.015
0.015
0.015
0.015
0.015
0.015
0.015
0.015
0.015
0.015
0.015
0.015
0.015
0.015
0.015
0.015
0.015
0.015
0.015
0.015
0.015
0.015
0.015
0.015
0.015
0.015
0.015
0.015
0.015
0.015
0.015
0.015
0.015
0.015
0.015
0.015
0.015
0.015
0.015
0.015
0.015
0.015
0.015
0.015
0.015
0.015
0.015
0.015
0.015
0.015
0.015
0.015
0.015
0.015
0.015
0.015
0.015
0.015
0.015
0.015
0.015
0.015
0.015
0.015
0.015
0.015
0.015
0.015
0.015
0.015
0.015
0.015
0.015
0.015
0.015
0.015
0.015
0.015
0.015
0.015
0.015
0.015
0.015
0.015
0.015
0.015
0.015
0.015
0.015
0.015
0.015
0.015
0.015
0.015
0.015
0.015
0.015
0.015
0.015
0.015
0.015
0.015
0.015
0.015
0.015
0.015
0.015
0.015
0.015
0.015
0.015
0.015
0.015
0.015
0.015
0.015
0.015
0.015
0.015
0.015
0.015
0.015
0.015
0.015
0.015
0.015
0.015
0.015
0.015
0.015
0.015
0.015
0.015
0.015
0.015
0.015
0.015
0.015
0.015
0.015
0.015
0.015
0.015
0.015
0.015
0.015
0.015
0.015
0.015
0.015
0.015
0.015
0.015
0.015
0.015
0.015
0.015
0.015
0.015
0.015
0.015
0.015
0.015
0.015
0.015
0.015
0.015
0.015
0.015
0.015
0.015
0.015
0.015
0.015
0.015
0.015
0.015
0.015
0.015
0.015
0.015
0.015
0.015
0.015
0.015
0.015
0.015
0.015
0.015
0.015
0.015
0.015
0.015
0.015
0.015
0.015
0.015
0.015
0.015
0.015
0.015
0.015
0.015
0.015
0.015
0.015
0.015
0.015
0.015
0.015
0.015
0.015
0.015
0.015
0.015
0.015
0.015
0.015
0.015
0.015
0.015
0.015
0.015
0.015
0.015
0.015
0.015
0.015
0.015
0.015
0.015
0.015
0.015
0.015
0.015
0.015
0.015
0.015
0.015
0.015
0.015
0.015
0.015
0.015
0.015
0.015
0.015
0.015
0.015
0.015
0.015
0.015
0.015
0.015
0.015
0.015
0.015
0.015
0.015
0.015
0.015
0.015
0.015
0.015
0.015
0.015
0.015
0.015
0.015
0.015
0.015
0.015
0.015
0.015
0.015
0.015
0.015
0.015
0.015
0.015
0.015
0.015
0.015
0.015
0.015
0.015
0.015
0.015
0.015
0.015
0.015
0.015
0.015
0.015
0.015
0.015
0.015
0.015
0.015
0.015
0.015
0.015
0.015
0.015
0.015
0.015
0.015
0.015
0.015
0.015
0.015
0.015
0.015
0.015
0.015
0.015
0.015
0.015
0.015
0.015
0.015
0.015
0.015
0.015
0.015
0.015
0.015
0.015
0.015
0.015
0.015
0.015
0.015
0.015
0.015
0.015
0.015
0.015
0.015
0.015
0.015
0.015
0.015
0.015
0.015
0.015
0.015
0.015
0.015
0.015
0.015
0.015
0.015
0.015
0.015
0.015
0.015
)


3
(

20
(
2e-05
2e-05
2e-05
2e-05
2e-05
2e-05
2e-05
2e-05
2e-05
2e-05
2e-05
2e-05
2e-05
2e-05
2e-05
2e-05
2e-05
2e-05
2e-05
2e-05
)


60
(
2e-05
2e-05
2e-05
2e-05
2e-05
2e-05
2e-05
2e-05
2e-05
2e-05
2e-05
2e-05
2e-05
2e-05
2e-05
2e-05
2e-05
2e-05
2e-05
2e-05
2e-05
2e-05
2e-05
2e-05
2e-05
2e-05
2e-05
2e-05
2e-05
2e-05
2e-05
2e-05
2e-05
2e-05
2e-05
2e-05
2e-05
2e-05
2e-05
2e-05
2e-05
2e-05
2e-05
2e-05
2e-05
2e-05
2e-05
2e-05
2e-05
2e-05
2e-05
2e-05
2e-05
2e-05
2e-05
2e-05
2e-05
2e-05
2e-05
2e-05
)

0()
)


3
(

20
(
0.007
0.007
0.007
0.007
0.007
0.007
0.007
0.007
0.007
0.007
0.007
0.007
0.007
0.007
0.007
0.007
0.007
0.007
0.007
0.007
)


60
(
0.006
0.006
0.006
0.006
0.006
0.006
0.006
0.006
0.006
0.006
0.006
0.006
0.006
0.006
0.006
0.006
0.006
0.006
0.006
0.006
0.006
0.006
0.006
0.006
0.006
0.006
0.006
0.006
0.006
0.006
0.006
0.006
0.006
0.006
0.006
0.006
0.006
0.006
0.006
0.006
0.006
0.006
0.006
0.006
0.006
0.006
0.006
0.006
0.006
0.006
0.006
0.006
0.006
0.006
0.006
0.006
0.006
0.006
0.006
0.006
)

0()
)


ExecutionTime = 0.01 s  ClockTime = 0 s

Time = 0.02

Courant Number mean: 0.167375 max: 0.800501
[...]
-9.69516e-06
-6.42267e-06
-8.58344e-06
-9.68817e-06
-1.16552e-05
-9.00632e-06
-1.40226e-05
-8.18407e-06
-1.5414e-05
-7.37907e-06
-1.59684e-05
-6.67625e-06
-1.58832e-05
-6.10781e-06
-1.53413e-05
-5.67454e-06
-1.44883e-05
-5.3629e-06
-1.34299e-05
-5.15679e-06
-1.22381e-05
-5.04514e-06
-1.09606e-05
-5.02643e-06
-9.63125e-06
-5.11075e-06
-8.28097e-06
-5.31959e-06
-6.94925e-06
-5.68222e-06
-5.6968e-06
-6.22683e-06
-4.61933e-06
-6.96422e-06
-3.86002e-06
-7.86288e-06
-3.61493e-06
-8.81818e-06
-4.1215e-06
-9.62761e-06
-5.61324e-06
-8.21105e-06
-9.62297e-06
-1.20323e-05
-8.85784e-06
-1.47877e-05
-8.00652e-06
-1.62653e-05
-7.2455e-06
-1.67294e-05
-6.64525e-06
-1.64834e-05
-6.21079e-06
-1.57758e-05
-5.91505e-06
-1.4784e-05
-5.72127e-06
-1.36237e-05
-5.59622e-06
-1.23632e-05
-5.51755e-06
-1.10393e-05
-5.47789e-06
-9.67091e-06
-5.48719e-06
-8.27167e-06
-5.57376e-06
-6.86268e-06
-5.78264e-06
-5.48792e-06
-6.16858e-06
-4.23338e-06
-6.77902e-06
-3.24958e-06
-7.62189e-06
-2.77207e-06
-8.61663e-06
-3.12675e-06
-9.53879e-06
-4.69109e-06
-7.74984e-06
-9.5274e-06
-1.25049e-05
-8.67577e-06
-1.56393e-05
-7.84454e-06
-1.70965e-05
-7.21341e-06
-1.73606e-05
-6.81473e-06
-1.68821e-05
-6.60846e-06
-1.59821e-05
-6.52986e-06
-1.48626e-05
-6.51526e-06
-1.36383e-05
-6.51374e-06
-1.23647e-05
-6.49188e-06
-1.10611e-05
-6.43583e-06
-9.72697e-06
-6.35324e-06
-8.35426e-06
-6.27579e-06
-6.94014e-06
-6.26114e-06
-5.50256e-06
-6.3911e-06
-4.10343e-06
-6.75867e-06
-2.88201e-06
-7.43331e-06
-2.09743e-06
-8.39252e-06
-2.16754e-06
-9.41781e-06
-3.6658e-06
-7.16765e-06
-9.38135e-06
-1.31235e-05
-8.45838e-06
-1.65623e-05
-7.74619e-06
-1.78087e-05
-7.38282e-06
-1.77239e-05
-7.32248e-06
-1.69425e-05
-7.45919e-06
-1.58453e-05
-7.68468e-06
-1.46371e-05
-7.91052e-06
-1.34125e-05
-8.07298e-06
-1.22022e-05
-8.13165e-06
-1.10025e-05
-8.06759e-06
-9.79102e-06
-7.88382e-06
-8.53803e-06
-7.60909e-06
-7.21487e-06
-7.30457e-06
-5.80708e-06
-7.07083e-06
-4.33717e-06
-7.04677e-06
-2.90607e-06
-7.38363e-06
-1.76057e-06
-8.16688e-06
-1.38428e-06
-9.24997e-06
-2.58272e-06
-6.41761e-06
-9.1631e-06
-1.39604e-05
-8.24334e-06
-1.74821e-05
-7.84239e-06
-1.82096e-05
-7.95563e-06
-1.76107e-05
-8.40356e-06
-1.64945e-05
-9.00074e-06
-1.52482e-05
-9.60256e-06
-1.40353e-05
-1.01098e-05
-1.29052e-05
-1.04593e-05
-1.18528e-05
-1.0613e-05
-1.08488e-05
-1.05512e-05
-9.8528e-06
-1.02707e-05
-8.81854e-06
-9.78866e-06
-7.69689e-06
-9.15382e-06
-6.44192e-06
-8.46388e-06
-5.02711e-06
-7.88465e-06
-3.4853e-06
-7.65221e-06
-1.99301e-06
-8.01643e-06
-1.02007e-06
-9.02754e-06
-1.57161e-06
-5.44516e-06
-8.88466e-06
-1.50758e-05
-8.20487e-06
-1.81618e-05
-8.46114e-06
-1.79534e-05
-9.32811e-06
-1.67437e-05
-1.04486e-05
-1.53741e-05
-1.15776e-05
-1.41192e-05
-1.25692e-05
-1.30437e-05
-1.33445e-05
-1.21299e-05
-1.38631e-05
-1.13342e-05
-1.41034e-05
-1.06084e-05
-1.40521e-05
-9.90413e-06
-1.36996e-05
-9.17098e-06
-1.30435e-05
-8.35299e-06
-1.20997e-05
-7.38577e-06
-1.09272e-05
-6.19965e-06
-9.6692e-06
-4.74326e-06
-8.60395e-06
-3.05826e-06
-8.16897e-06
-1.45504e-06
-8.79423e-06
-9.46342e-07
-4.23939e-06
-8.71309e-06
-1.63627e-05
-8.90828e-06
-1.79667e-05
-1.03591e-05
-1.65026e-05
-1.22348e-05
-1.4868e-05
-1.40667e-05
-1.35422e-05
-1.56509e-05
-1.2535e-05
-1.69146e-05
-1.178e-05
-1.78441e-05
-1.12004e-05
-1.84459e-05
-1.07324e-05
-1.87276e-05
-1.03268e-05
-1.86883e-05
-9.9434e-06
-1.83154e-05
-9.54392e-06
-1.75837e-05
-9.08466e-06
-1.64618e-05
-8.50762e-06
-1.49309e-05
-7.73054e-06
-1.3031e-05
-6.64317e-06
-1.09562e-05
-5.13309e-06
-9.2202e-06
-3.19104e-06
-8.77083e-06
-1.39571e-06
-3.01023e-06
-9.60749e-06
-1.67552e-05
-1.20404e-05
-1.55338e-05
-1.51488e-05
-1.33942e-05
-1.78968e-05
-1.21199e-05
-2.0079e-05
-1.136e-05
-2.17291e-05
-1.0885e-05
-2.29305e-05
-1.05786e-05
-2.37608e-05
-1.037e-05
-2.42771e-05
-1.02161e-05
-2.45133e-05
-1.00906e-05
-2.44812e-05
-9.97551e-06
-2.41694e-05
-9.85565e-06
-2.3541e-05
-9.71313e-06
-2.25276e-05
-9.52102e-06
-2.10259e-05
-9.23223e-06
-1.89078e-05
-8.76129e-06
-1.60862e-05
-7.95466e-06
-1.27389e-05
-6.53838e-06
-9.93542e-06
-4.19916e-06
-2.94564e-06
-1.67552e-05
-2.22889e-05
-2.56831e-05
-2.7803e-05
-2.9163e-05
-3.0048e-05
-3.06266e-05
-3.09966e-05
-3.12127e-05
-3.13033e-05
-3.12789e-05
-3.11345e-05
-3.08476e-05
-3.03686e-05
-2.96009e-05
-2.83622e-05
-2.63168e-05
-2.28552e-05
-1.70544e-05
)

400
(
7e-05
8e-05
8e-05
8e-05
8e-05
8e-05
8e-05
8e-05
8e-05
8e-05
8e-05
8e-05
8e-05
8e-05
8e-05
8e-05
8e-05
8e-05
8e-05
7e-05
8e-05
9e-05
9e-05
9e-05
9e-05
9e-05
9e-05
9e-05
9e-05
9e-05
9e-05
9e-05
9e-05
9e-05
9e-05
9e-05
9e-05
9e-05
9e-05
8e-05
8e-05
9e-05
9e-05
9e-05
9e-05
9e-05
9e-05
9e-05
9e-05
9e-05
9e-05
9e-05
9e-05
9e-05
9e-05
9e-05
9e-05
9e-05
9e-05
8e-05
8e-05
9e-05
9e-05
9e-05
9e-05
9e-05
9e-05
9e-05
9e-05
9e-05
9e-05
9e-05
9e-05
9e-05
9e-05
9e-05
9e-05
9e-05
9e-05
8e-05
8e-05
9e-05
9e-05
9e-05
9e-05
9e-05
9e-05
9e-05
9e-05
9e-05
9e-05
9e-05
9e-05
9e-05
9e-05
9e-05
9e-05
9e-05
9e-05
8e-05
8e-05
9e-05
9e-05
9e-05
9e-05
9e-05
9e-05
9e-05
9e-05
9e-05
9e-05
9e-05
9e-05
9e-05
9e-05
9e-05
9e-05
9e-05
9e-05
8e-05
8e-05
9e-05
9e-05
9e-05
9e-05
9e-05
9e-05
9e-05
9e-05
9e-05
9e-05
9e-05
9e-05
9e-05
9e-05
9e-05
9e-05
9e-05
9e-05
8e-05
8e-05
9e-05
9e-05
9e-05
9e-05
9e-05
9e-05
9e-05
9e-05
9e-05
9e-05
9e-05
9e-05
9e-05
9e-05
9e-05
9e-05
9e-05
9e-05
8e-05
8e-05
9e-05
9e-05
9e-05
9e-05
9e-05
9e-05
9e-05
9e-05
9e-05
9e-05
9e-05
9e-05
9e-05
9e-05
9e-05
9e-05
9e-05
9e-05
8e-05
8e-05
9e-05
9e-05
9e-05
9e-05
9e-05
9e-05
9e-05
9e-05
9e-05
9e-05
9e-05
9e-05
9e-05
9e-05
9e-05
9e-05
9e-05
9e-05
8e-05
8e-05
9e-05
9e-05
9e-05
9e-05
9e-05
9e-05
9e-05
9e-05
9e-05
9e-05
9e-05
9e-05
9e-05
9e-05
9e-05
9e-05
9e-05
9e-05
8e-05
8e-05
9e-05
9e-05
9e-05
9e-05
9e-05
9e-05
9e-05
9e-05
9e-05
9e-05
9e-05
9e-05
9e-05
9e-05
9e-05
9e-05
9e-05
9e-05
8e-05
8e-05
9e-05
9e-05
9e-05
9e-05
9e-05
9e-05
9e-05
9e-05
9e-05
9e-05
9e-05
9e-05
9e-05
9e-05
9e-05
9e-05
9e-05
9e-05
8e-05
8e-05
9e-05
9e-05
9e-05
9e-05
9e-05
9e-05
9e-05
9e-05
9e-05
9e-05
9e-05
9e-05
9e-05
9e-05
9e-05
9e-05
9e-05
9e-05
8e-05
8e-05
9e-05
9e-05
9e-05
9e-05
9e-05
9e-05
9e-05
9e-05
9e-05
9e-05
9e-05
9e-05
9e-05
9e-05
9e-05
9e-05
9e-05
9e-05
8e-05
8e-05
9e-05
9e-05
9e-05
9e-05
9e-05
9e-05
9e-05
9e-05
9e-05
9e-05
9e-05
9e-05
9e-05
9e-05
9e-05
9e-05
9e-05
9e-05
8e-05
8e-05
9e-05
9e-05
9e-05
9e-05
9e-05
9e-05
9e-05
9e-05
9e-05
9e-05
9e-05
9e-05
9e-05
9e-05
9e-05
9e-05
9e-05
9e-05
8e-05
8e-05
9e-05
9e-05
9e-05
9e-05
9e-05
9e-05
9e-05
9e-05
9e-05
9e-05
9e-05
9e-05
9e-05
9e-05
9e-05
9e-05
9e-05
9e-05
8e-05
8e-05
9e-05
9e-05
9e-05
9e-05
9e-05
9e-05
9e-05
9e-05
9e-05
9e-05
9e-05
9e-05
9e-05
9e-05
9e-05
9e-05
9e-05
9e-05
8e-05
7e-05
8e-05
8e-05
8e-05
8e-05
8e-05
8e-05
8e-05
8e-05
8e-05
8e-05
8e-05
8e-05
8e-05
8e-05
8e-05
8e-05
8e-05
8e-05
7e-05
)

760
(
-9.99288e-06
-1.00071e-05
-1.00111e-05
-9.98178e-06
-1.00571e-05
-9.95397e-06
-1.01228e-05
-9.93438e-06
-1.01981e-05
-9.92469e-06
-1.02737e-05
-9.92436e-06
-1.03416e-05
-9.93208e-06
-1.03954e-05
-9.94626e-06
-1.04301e-05
-9.96523e-06
-1.04428e-05
-9.98728e-06
-1.04322e-05
-1.00107e-05
-1.03987e-05
-1.00335e-05
-1.03451e-05
-1.00537e-05
-1.0276e-05
-1.00691e-05
-1.01985e-05
-1.00775e-05
-1.01214e-05
-1.00771e-05
-1.00549e-05
-1.00665e-05
-1.00092e-05
-1.00457e-05
-9.99215e-06
-1.00171e-05
-9.99215e-06
-1.00171e-05
-9.99003e-06
-1.00902e-05
-9.90869e-06
-1.0217e-05
-9.82715e-06
-1.03822e-05
-9.76915e-06
-1.05661e-05
-9.74079e-06
-1.07487e-05
-9.74183e-06
-1.09117e-05
-9.76903e-06
-1.10403e-05
-9.81765e-06
-1.11232e-05
-9.88235e-06
-1.11531e-05
-9.9574e-06
-1.1127e-05
-1.00367e-05
-1.10466e-05
-1.01139e-05
-1.09182e-05
-1.01821e-05
-1.07531e-05
-1.02342e-05
-1.05671e-05
-1.02635e-05
-1.03798e-05
-1.02644e-05
-1.02127e-05
-1.02336e-05
-1.00864e-05
-1.0172e-05
-1.00154e-05
-1.0088e-05
-1.00076e-05
-1.00461e-05
-9.94391e-06
-1.01785e-05
-9.7763e-06
-1.03823e-05
-9.62336e-06
-1.06343e-05
-9.51717e-06
-1.09074e-05
-9.46767e-06
-1.11746e-05
-9.47464e-06
-1.14113e-05
-9.53232e-06
-1.15971e-05
-9.63189e-06
-1.17164e-05
-9.76301e-06
-1.17594e-05
-9.91445e-06
-1.17219e-05
-1.00742e-05
-1.16062e-05
-1.02296e-05
-1.14211e-05
-1.03671e-05
-1.1182e-05
-1.04733e-05
-1.09102e-05
-1.05353e-05
-1.06323e-05
-1.05423e-05
-1.03773e-05
-1.04886e-05
-1.01735e-05
-1.03758e-05
-1.00437e-05
-1.02178e-05
-1.00512e-05
-1.00726e-05
-9.8713e-06
-1.02627e-05
-9.58617e-06
-1.05408e-05
-9.34526e-06
-1.08738e-05
-9.18422e-06
-1.12272e-05
-9.11424e-06
-1.15683e-05
-9.1336e-06
-1.18677e-05
-9.23285e-06
-1.21016e-05
-9.39807e-06
-1.22516e-05
-9.613e-06
-1.23061e-05
-9.85994e-06
-1.22602e-05
-1.012e-05
-1.21165e-05
-1.03733e-05
-1.18848e-05
-1.05988e-05
-1.15829e-05
-1.07752e-05
-1.1236e-05
-1.08822e-05
-1.08756e-05
-1.09027e-05
-1.05373e-05
-1.08269e-05
-1.02576e-05
-1.06555e-05
-1.00697e-05
-1.04057e-05
-1.01209e-05
-1.00968e-05
-9.77449e-06
-1.03425e-05
-9.34046e-06
-1.06928e-05
-8.99493e-06
-1.11037e-05
-8.77339e-06
-1.15328e-05
-8.68511e-06
-1.1942e-05
-8.72443e-06
-1.22984e-05
-8.87647e-06
-1.25754e-05
-9.12102e-06
-1.27533e-05
-9.43506e-06
-1.28194e-05
-9.7939e-06
-1.2768e-05
-1.01714e-05
-1.26013e-05
-1.054e-05
-1.23295e-05
-1.08706e-05
-1.19716e-05
-1.11332e-05
-1.15549e-05
-1.12988e-05
-1.11153e-05
-1.13424e-05
-1.06948e-05
-1.12473e-05
-1.03393e-05
-1.10111e-05
-1.00939e-05
-1.06511e-05
-1.02148e-05
-1.012e-05
-9.65451e-06
-1.04202e-05
-9.04024e-06
-1.08417e-05
-8.57345e-06
-1.13286e-05
-8.28649e-06
-1.18305e-05
-8.1832e-06
-1.2304e-05
-8.25095e-06
-1.27133e-05
-8.46716e-06
-1.30304e-05
-8.8039e-06
-1.32348e-05
-9.23066e-06
-1.33131e-05
-9.71555e-06
-1.32593e-05
-1.02253e-05
-1.30745e-05
-1.07248e-05
-1.27684e-05
-1.11767e-05
-1.23595e-05
-1.1542e-05
-1.18768e-05
-1.17816e-05
-1.13593e-05
-1.18599e-05
-1.08558e-05
-1.17508e-05
-1.04223e-05
-1.14445e-05
-1.01181e-05
-1.09554e-05
-1.03329e-05
-1.01434e-05
-9.51114e-06
-1.04986e-05
-8.68506e-06
-1.09911e-05
-8.08094e-06
-1.15525e-05
-7.72504e-06
-1.2124e-05
-7.61168e-06
-1.26575e-05
-7.7175e-06
-1.31151e-05
-8.0095e-06
-1.34687e-05
-8.45036e-06
-1.36978e-05
-9.0015e-06
-1.37894e-05
-9.62398e-06
-1.37367e-05
-1.0278e-05
-1.35397e-05
-1.09218e-05
-1.3206e-05
-1.15104e-05
-1.27529e-05
-1.19952e-05
-1.22086e-05
-1.23258e-05
-1.16147e-05
-1.24537e-05
-1.10265e-05
-1.2339e-05
-1.05113e-05
-1.19598e-05
-1.01441e-05
-1.13225e-05
-1.0477e-05
-1.01682e-05
-9.34297e-06
-1.05802e-05
-8.27303e-06
-1.1144e-05
-7.5171e-06
-1.17775e-05
-7.09154e-06
-1.24134e-05
-6.97586e-06
-1.29996e-05
-7.13127e-06
-1.34981e-05
-7.51101e-06
-1.38818e-05
-8.06661e-06
-1.41323e-05
-8.75101e-06
-1.42374e-05
-9.51892e-06
-1.41901e-05
-1.03254e-05
-1.39885e-05
-1.11234e-05
-1.36374e-05
-1.18615e-05
-1.315e-05
-1.24825e-05
-1.25524e-05
-1.29235e-05
-1.18863e-05
-1.31198e-05
-1.12125e-05
-1.30129e-05
-1.06104e-05
-1.25618e-05
-1.01739e-05
-1.1759e-05
-1.06509e-05
-1.01955e-05
-9.14749e-06
-1.06675e-05
-7.80106e-06
-1.13025e-05
-6.88205e-06
-1.2003e-05
-6.39104e-06
-1.26934e-05
-6.28541e-06
-1.33199e-05
-6.50479e-06
-1.38463e-05
-6.98466e-06
-1.42493e-05
-7.66359e-06
-1.45143e-05
-8.48603e-06
-1.46315e-05
-9.40166e-06
-1.45944e-05
-1.03625e-05
-1.43988e-05
-1.1319e-05
-1.40447e-05
-1.22156e-05
-1.35396e-05
-1.29877e-05
-1.29032e-05
-1.35598e-05
-1.21745e-05
-1.38485e-05
-1.14174e-05
-1.377e-05
-1.07236e-05
-1.32557e-05
-1.02091e-05
-1.22735e-05
-1.08599e-05
-1.02267e-05
-8.92076e-06
-1.07628e-05
-7.26495e-06
-1.14674e-05
-6.17745e-06
-1.22251e-05
-5.63342e-06
-1.29532e-05
-5.5573e-06
-1.35989e-05
-5.85904e-06
-1.41319e-05
-6.45173e-06
-1.45361e-05
-7.25938e-06
-1.48035e-05
-8.21863e-06
-1.49288e-05
-9.2763e-06
-1.49067e-05
-1.03846e-05
-1.47307e-05
-1.1495e-05
-1.43946e-05
-1.25517e-05
-1.38965e-05
-1.34858e-05
-1.32461e-05
-1.42102e-05
-1.2474e-05
-1.46206e-05
-1.16426e-05
-1.46014e-05
-1.08543e-05
-1.40439e-05
-1.02518e-05
-1.28761e-05
-1.11117e-05
-1.02642e-05
-8.65659e-06
-1.08698e-05
-6.65929e-06
-1.1639e-05
-5.40829e-06
-1.24358e-05
-4.8366e-06
-1.31735e-05
-4.81961e-06
-1.38054e-05
-5.22714e-06
-1.43122e-05
-5.94496e-06
-1.46898e-05
-6.88172e-06
-1.49405e-05
-7.96798e-06
-1.50657e-05
-9.15103e-06
-1.50629e-05
-1.03875e-05
-1.49232e-05
-1.16347e-05
-1.4633e-05
-1.28419e-05
-1.41782e-05
-1.39406e-05
-1.35523e-05
-1.48361e-05
-1.27703e-05
-1.54026e-05
-1.18854e-05
-1.54864e-05
-1.10061e-05
-1.49232e-05
-1.03048e-05
-1.35773e-05
-1.14166e-05
-1.03118e-05
-8.34476e-06
-1.09937e-05
-5.97744e-06
-1.18159e-05
-4.58604e-06
-1.26209e-05
-4.0316e-06
-1.33237e-05
-4.1168e-06
-1.38922e-05
-4.65869e-06
-1.43255e-05
-5.5117e-06
-1.46371e-05
-6.57007e-06
-1.48432e-05
-7.76186e-06
-1.49549e-05
-9.03939e-06
-1.49736e-05
-1.03688e-05
-1.48892e-05
-1.1719e-05
-1.46804e-05
-1.30508e-05
-1.43178e-05
-1.43032e-05
-1.37732e-05
-1.53807e-05
-1.30358e-05
-1.614e-05
-1.21371e-05
-1.63851e-05
-1.11818e-05
-1.58785e-05
-1.03724e-05
-1.43868e-05
-1.17889e-05
-1.0377e-05
-7.96773e-06
-1.11422e-05
-5.21231e-06
-1.19935e-05
-3.73472e-06
-1.27545e-05
-3.27057e-06
-1.33547e-05
-3.51655e-06
-1.37892e-05
-4.22423e-06
-1.4085e-05
-5.21596e-06
-1.42787e-05
-6.37629e-06
-1.44038e-05
-7.63681e-06
-1.44824e-05
-8.96072e-06
-1.45221e-05
-1.03291e-05
-1.45128e-05
-1.17283e-05
-1.44262e-05
-1.31373e-05
-1.42174e-05
-1.45121e-05
-1.38314e-05
-1.57666e-05
-1.3221e-05
-1.67504e-05
-1.23781e-05
-1.72279e-05
-1.13834e-05
-1.68732e-05
-1.04612e-05
-1.53089e-05
-1.22502e-05
-1.04726e-05
-7.49513e-06
-1.13242e-05
-4.36068e-06
-1.21555e-05
-2.90349e-06
-1.27866e-05
-2.63944e-06
-1.31853e-05
-3.11788e-06
-1.33915e-05
-4.01795e-06
-1.34701e-05
-5.13737e-06
-1.34847e-05
-6.36169e-06
-1.34863e-05
-7.6353e-06
-1.35081e-05
-8.93887e-06
-1.35642e-05
-1.0273e-05
-1.36468e-05
-1.16457e-05
-1.37242e-05
-1.30599e-05
-1.37389e-05
-1.44974e-05
-1.36089e-05
-1.58966e-05
-1.32413e-05
-1.7118e-05
-1.25667e-05
-1.79026e-05
-1.16075e-05
-1.78325e-05
-1.05822e-05
-1.63342e-05
-1.28324e-05
-1.06186e-05
-6.87648e-06
-1.15416e-05
-3.43771e-06
-1.22538e-05
-2.1913e-06
-1.26172e-05
-2.27607e-06
-1.26775e-05
-3.05753e-06
-1.25408e-05
-4.15466e-06
-1.23153e-05
-5.36286e-06
-1.20895e-05
-6.58752e-06
-1.1927e-05
-7.79776e-06
-1.18684e-05
-8.99754e-06
-1.19324e-05
-1.0209e-05
-1.21162e-05
-1.1462e-05
-1.23909e-05
-1.27851e-05
-1.26954e-05
-1.41929e-05
-1.29292e-05
-1.56628e-05
-1.29532e-05
-1.70939e-05
-1.26164e-05
-1.82394e-05
-1.18331e-05
-1.86157e-05
-1.075e-05
-1.74173e-05
-1.35824e-05
-1.08369e-05
-6.03959e-06
-1.17567e-05
-2.51794e-06
-1.21576e-05
-1.79035e-06
-1.20444e-05
-2.38931e-06
-1.15964e-05
-3.50547e-06
-1.09993e-05
-4.75184e-06
-1.03974e-05
-5.96467e-06
-9.89019e-06
-7.09478e-06
-9.54073e-06
-8.14722e-06
-9.38704e-06
-9.15123e-06
-9.44881e-06
-1.01472e-05
-9.72932e-06
-1.11815e-05
-1.02113e-05
-1.23031e-05
-1.08462e-05
-1.35581e-05
-1.15361e-05
-1.49729e-05
-1.21154e-05
-1.65147e-05
-1.23478e-05
-1.8007e-05
-1.19836e-05
-1.89799e-05
-1.09725e-05
-1.84284e-05
-1.45548e-05
-1.11153e-05
-4.92425e-06
-1.17951e-05
-1.83815e-06
-1.15389e-05
-2.04663e-06
-1.06719e-05
-3.25628e-06
-9.55141e-06
-4.62595e-06
-8.42242e-06
-5.88083e-06
-7.43083e-06
-6.95627e-06
-6.65552e-06
-7.87008e-06
-6.13694e-06
-8.6658e-06
-5.89658e-06
-9.39159e-06
-5.94792e-06
-1.00959e-05
-6.30035e-06
-1.0829e-05
-6.95645e-06
-1.1647e-05
-7.90031e-06
-1.26142e-05
-9.07285e-06
-1.38004e-05
-1.03308e-05
-1.52567e-05
-1.13961e-05
-1.69417e-05
-1.1831e-05
-1.8545e-05
-1.12058e-05
-1.90537e-05
-1.57606e-05
-1.12869e-05
-3.63734e-06
-1.10917e-05
-2.03334e-06
-9.64094e-06
-3.4974e-06
-7.76518e-06
-5.13205e-06
-5.9333e-06
-6.45783e-06
-4.34914e-06
-7.46499e-06
-3.08537e-06
-8.22004e-06
-2.15585e-06
-8.79959e-06
-1.55406e-06
-9.26759e-06
-1.27245e-06
-9.6732e-06
-1.31171e-06
-1.00566e-05
-1.68465e-06
-1.04561e-05
-2.41632e-06
-1.09153e-05
-3.53817e-06
-1.14924e-05
-5.06907e-06
-1.22695e-05
-6.96898e-06
-1.33568e-05
-9.0438e-06
-1.48669e-05
-1.07798e-05
-1.6809e-05
-1.12292e-05
-1.86043e-05
-1.69898e-05
-1.03925e-05
-3.24483e-06
-7.9596e-06
-4.46624e-06
-4.85122e-06
-6.60578e-06
-2.10316e-06
-7.8801e-06
7.90478e-08
-8.64004e-06
1.72908e-06
-9.11502e-06
2.93046e-06
-9.42143e-06
3.76084e-06
-9.62997e-06
4.2771e-06
-9.78385e-06
4.51329e-06
-9.90939e-06
4.48118e-06
-1.00245e-05
4.16945e-06
-1.01444e-05
3.54098e-06
-1.02869e-05
2.52758e-06
-1.0479e-05
1.02589e-06
-1.07678e-05
-1.09223e-06
-1.12387e-05
-3.91379e-06
-1.20453e-05
-7.26113e-06
-1.34616e-05
-1.00646e-05
-1.58008e-05
-1.70544e-05
-3.24483e-06
2.28892e-06
5.68314e-06
7.80304e-06
9.163e-06
1.0048e-05
1.06266e-05
1.09966e-05
1.12127e-05
1.13033e-05
1.12789e-05
1.11345e-05
1.08476e-05
1.03686e-05
9.60088e-06
8.36217e-06
6.31682e-06
2.8552e-06
-2.94564e-06
)

[0 3 -1 1 0 0 0]

400
(
0.015
0.015
0.015
0.015
0.015
0.015
0.015
0.015
0.015
0.015
0.015
0.015
0.015
0.015
0.015
0.015
0.015
0.015
0.015
0.015
0.015
0.015
0.015
0.015
0.015
0.015
0.015
0.015
0.015
0.015
0.015
0.015
0.015
0.015
0.015
0.015
0.015
0.015
0.015
0.015
0.015
0.015
0.015
0.015
0.015
0.015
0.015
0.015
0.015
0.015
0.015
0.015
0.015
0.015
0.015
0.015
0.015
0.015
0.015
0.015
0.015
0.015
0.015
0.015
0.015
0.015
0.015
0.015
0.015
0.015
0.015
0.015
0.015
0.015
0.015
0.015
0.015
0.015
0.015
0.015
0.015
0.015
0.015
0.015
0.015
0.015
0.015
0.015
0.015
0.015
0.015
0.015
0.015
0.015
0.015
0.015
0.015
0.015
0.015
0.015
0.015
0.015
0.015
0.015
0.015
0.015
0.015
0.015
0.015
0.015
0.015
0.015
0.015
0.015
0.015
0.015
0.015
0.015
0.015
0.015
0.015
0.015
0.015
0.015
0.015
0.015
0.015
0.015
0.015
0.015
0.015
0.015
0.015
0.015
0.015
0.015
0.015
0.015
0.015
0.015
0.015
0.015
0.015
0.015
0.015
0.015
0.015
0.015
0.015
0.015
0.015
0.015
0.015
0.015
0.015
0.015
0.015
0.015
0.015
0.015
0.015
0.015
0.015
0.015
0.015
0.015
0.015
0.015
0.015
0.015
0.015
0.015
0.015
0.015
0.015
0.015
0.015
0.015
0.015
0.015
0.015
0.015
0.015
0.015
0.015
0.015
0.015
0.015
0.015
0.015
0.015
0.015
0.015
0.015
0.015
0.015
0.015
0.015
0.015
0.015
0.015
0.015
0.015
0.015
0.015
0.015
0.015
0.015
0.015
0.015
0.015
0.015
0.015
0.015
0.015
0.015
0.015
0.015
0.015
0.015
0.015
0.015
0.015
0.015
0.015
0.015
0.015
0.015
0.015
0.015
0.015
0.015
0.015
0.015
0.015
0.015
0.015
0.015
0.015
0.015
0.015
0.015
0.015
0.015
0.015
0.015
0.015
0.015
0.015
0.015
0.015
0.015
0.015
0.015
0.015
0.015
0.015
0.015
0.015
0.015
0.015
0.015
0.015
0.015
0.015
0.015
0.015
0.015
0.015
0.015
0.015
0.015
0.015
0.015
0.015
0.015
0.015
0.015
0.015
0.015
0.015
0.015
0.015
0.015
0.015
0.015
0.015
0.015
0.015
0.015
0.015
0.015
0.015
0.015
0.015
0.015
0.015
0.015
0.015
0.015
0.015
0.015
0.015
0.015
0.015
0.015
0.015
0.015
0.015
0.015
0.015
0.015
0.015
0.015
0.015
0.015
0.015
0.015
0.015
0.015
0.015
0.015
0.015
0.015
0.015
0.015
0.015
0.015
0.015
0.015
0.015
0.015
0.015
0.015
0.015
0.015
0.015
0.015
0.015
0.015
0.015
0.015
0.015
0.015
0.015
0.015
0.015
0.015
0.015
0.015
0.015
0.015
0.015
0.015
0.015
0.015
0.015
0.015
0.015
0.015
0.015
0.015
0.015
0.015
0.015
0.015
0.015
0.015
0.015
0.015
0.015
0.015
0.015
0.015
0.015
0.015
0.015
0.015
0.015
0.015
0.015
0.015
0.015
0.015
0.015
0.015
0.015
0.015
0.015
0.015
0.015
0.015
0.015
0.015
0.015
0.015
0.015
0.015
0.015
0.015
)


3
(

20
(
2e-05
2e-05
2e-05
2e-05
2e-05
2e-05
2e-05
2e-05
2e-05
2e-05
2e-05
2e-05
2e-05
2e-05
2e-05
2e-05
2e-05
2e-05
2e-05
2e-05
)


60
(
2e-05
2e-05
2e-05
2e-05
2e-05
2e-05
2e-05
2e-05
2e-05
2e-05
2e-05
2e-05
2e-05
2e-05
2e-05
2e-05
2e-05
2e-05
2e-05
2e-05
2e-05
2e-05
2e-05
2e-05
2e-05
2e-05
2e-05
2e-05
2e-05
2e-05
2e-05
2e-05
2e-05
2e-05
2e-05
2e-05
2e-05
2e-05
2e-05
2e-05
2e-05
2e-05
2e-05
2e-05
2e-05
2e-05
2e-05
2e-05
2e-05
2e-05
2e-05
2e-05
2e-05
2e-05
2e-05
2e-05
2e-05
2e-05
2e-05
2e-05
)

0()
)


3
(

20
(
0.007
0.007
0.007
0.007
0.007
0.007
0.007
0.007
0.007
0.007
0.007
0.007
0.007
0.007
0.007
0.007
0.007
0.007
0.007
0.007
)


60
(
0.006
0.006
0.006
0.006
0.006
0.006
0.006
0.006
0.006
0.006
0.006
0.006
0.006
0.006
0.006
0.006
0.006
0.006
0.006
0.006
0.006
0.006
0.006
0.006
0.006
0.006
0.006
0.006
0.006
0.006
0.006
0.006
0.006
0.006
0.006
0.006
0.006
0.006
0.006
0.006
0.006
0.006
0.006
0.006
0.006
0.006
0.006
0.006
0.006
0.006
0.006
0.006
0.006
0.006
0.006
0.006
0.006
0.006
0.006
0.006
)

0()
)


ExecutionTime = 0.13 s  ClockTime = 1 s

End

